   Input file: C:\Users\Andrew Freiburger\Dropbox\My PC (DESKTOP-M302P50)\Documents\UVic Civil Engineering\PHREEQC\ROSS\examples\scaling\scale_validation\Karabelas_et_al_2014\input.pqi
  Output file: C:\Users\Andrew Freiburger\Dropbox\My PC (DESKTOP-M302P50)\Documents\UVic Civil Engineering\PHREEQC\ROSS\examples\scaling\scale_validation\Karabelas_et_al_2014\output.pqo
Database file: C:\Users\Andrew Freiburger\AppData\Local\Packages\PythonSoftwareFoundation.Python.3.8_qbz5n2kfra8p0\LocalCache\local-packages\Python38\site-packages\rosspy\databases\pitzer.dat

------------------
Reading data base.
------------------

	SOLUTION_MASTER_SPECIES
	SOLUTION_SPECIES
	PHASES
	PITZER
	EXCHANGE_MASTER_SPECIES
	EXCHANGE_SPECIES
	SURFACE_MASTER_SPECIES
	SURFACE_SPECIES
	END
------------------------------------
Reading input data for simulation 1.
------------------------------------

	DATABASE C:\Users\Andrew Freiburger\Dropbox\My PC (DESKTOP-M302P50)\Documents\UVic Civil Engineering\PHREEQC\ROSS\rosspy\databases\pitzer.dat
	TITLE	 None
	SOLUTION 0	Spacer-filled_channels
	pH 		 6.4 charge #
	units 	 ppm
	Ca		800	#
	S(6)	1975	#
	water 	17.378153556381264
	SOLUTION 1-12	Initial solution in the RO module
	temp 	 25
	units 	 ppm
	water 	17.378153556381264
	EQUILIBRIUM_PHASES 1-12	
	Anhydrite		0	0
	Aragonite		0	0
	Calcite		0	0
	Gypsum			0	0
	Portlandite		0	0
	REACTION 1
		H2O -1
	 8.916777599410583
	REACTION 2
		H2O -1
	 8.835040471415986
	REACTION 3
		H2O -1
	 8.75330334342139
	REACTION 4
		H2O -1
	 8.671566215426791
	REACTION 5
		H2O -1
	 8.589829087432195
	REACTION 6
		H2O -1
	 8.508091959437598
	REACTION 7
		H2O -1
	 8.426354831443001
	REACTION 8
		H2O -1
	 8.344617703448403
	REACTION 9
		H2O -1
	 8.262880575453806
	REACTION 10
		H2O -1
	 8.18114344745921
	REACTION 11
		H2O -1
	 8.099406319464613
	REACTION 12
		H2O -1
	 8.017669191470016
	SELECTED_OUTPUT
	file			2021-12-23_Spacer-filled_channels_transport_pitzer_scaling_0.txt
	reaction		true
	temperature		true
	totals			Ca S(6)
	saturation_indices	Anhydrite Aragonite Calcite Gypsum Portlandite
	equilibrium_phases	Anhydrite Aragonite Calcite Gypsum Portlandite
	ph			true
	time			true
	distance		true
	simulation		true
	high_precision	true
	alkalinity	true
	solution
	charge_balance	true
	ionic_strength	true
	step
	water
	TRANSPORT
	cells			12
	shifts			51
	lengths		0.08466666666666667
	time_step		3.946329703005324	# this satisfies the Courant condition with a feed velocity of 2.575E-1 m/s
	initial_time		0
	boundary_conditions	constant	flux 	 # Dirichlet and Cachy boundary conditions
	punch_cells		1-12
	punch_frequency	51
WARNING: Cell-lengths were read for 1 cells. Last value is used till cell 12.
WARNING: No dispersivities were read; disp = 0 assumed.
-----
TITLE
-----

	 None

-------------------------------------------
Beginning of initial solution calculations.
-------------------------------------------

Initial solution 0.	Spacer-filled_channels

-----------------------------Solution composition------------------------------

	Elements           Molality       Moles

	Ca                2.002e-02   3.478e-01
	S(6)              2.062e-02   3.583e-01

----------------------------Description of solution----------------------------

                                       pH  =   3.201      Charge balance
                                       pe  =   4.000    
      Specific Conductance (µS/cm,  25°C)  = 4128
                          Density (g/cm³)  =   0.99984
                               Volume (L)  =  17.42940
                        Activity of water  =   0.999
                 Ionic strength (mol/kgw)  =   8.103e-02
                       Mass of water (kg)  =   1.738e+01
                 Total alkalinity (eq/kg)  =  -1.202e-03
                         Temperature (°C)  =  25.00
                  Electrical balance (eq)  =   1.066e-14
 Percent error, 100*(Cat-|An|)/(Cat+|An|)  =   0.00
                               Iterations  =  18
                         Gamma iterations  =   4
                      Osmotic coefficient  =   0.68395
                         Density of water  =   0.99704
                                  Total H  = 1.929212e+03
                                  Total O  = 9.660287e+02

----------------------------Distribution of species----------------------------

                                                    MacInnes  MacInnes
                                MacInnes       Log       Log       Log    mole V
   Species          Molality    Activity  Molality  Activity     Gamma   cm³/mol

   H+              7.839e-04   6.295e-04    -3.106    -3.201    -0.095      0.00
   OH-             2.269e-11   1.607e-11   -10.644   -10.794    -0.150     -3.78
   H2O             5.551e+01   9.995e-01     1.744    -0.000     0.000     18.07
Ca            2.002e-02
   Ca+2            2.002e-02   6.409e-03    -1.699    -2.193    -0.495    -17.49
S(6)          2.062e-02
   SO4-2           2.020e-02   5.602e-03    -1.695    -2.252    -0.557     15.67
   HSO4-           4.177e-04   3.359e-04    -3.379    -3.474    -0.095     40.51

------------------------------Saturation indices-------------------------------

  Phase               SI** log IAP   log K(298 K,   1 atm)

  Anhydrite        -0.19     -4.44   -4.25  CaSO4
  Gypsum            0.16     -4.45   -4.60  CaSO4:2H2O
  H2O(g)           -1.50     -0.00    1.50  H2O
  Portlandite     -18.59    -23.78   -5.19  Ca(OH)2

**For a gas, SI = log10(fugacity). Fugacity = pressure * phi / 1 atm.
  For ideal gases, phi = 1.

Initial solution 1.	Initial solution in the RO module

-----------------------------Solution composition------------------------------

	Elements           Molality       Moles

	Pure water     

----------------------------Description of solution----------------------------

                                       pH  =   7.000    
                                       pe  =   4.000    
      Specific Conductance (µS/cm,  25°C)  = 0
                          Density (g/cm³)  =   0.99704
                               Volume (L)  =  17.42969
                        Activity of water  =   1.000
                 Ionic strength (mol/kgw)  =   1.006e-07
                       Mass of water (kg)  =   1.738e+01
                 Total alkalinity (eq/kg)  =   1.216e-09
                         Temperature (°C)  =  25.00
                  Electrical balance (eq)  =  -2.114e-08
 Percent error, 100*(Cat-|An|)/(Cat+|An|)  =  -0.60
                               Iterations  =   3 (21 overall)
                         Gamma iterations  =   2
                      Osmotic coefficient  =   0.99988
                         Density of water  =   0.99704
                                  Total H  = 1.929191e+03
                                  Total O  = 9.645956e+02

----------------------------Distribution of species----------------------------

                                                    MacInnes  MacInnes
                                MacInnes       Log       Log       Log    mole V
   Species          Molality    Activity  Molality  Activity     Gamma   cm³/mol

   OH-             1.013e-07   1.012e-07    -6.995    -6.995    -0.000     -4.14
   H+              1.000e-07   1.000e-07    -7.000    -7.000    -0.000      0.00
   H2O             5.551e+01   1.000e+00     1.744    -0.000     0.000     18.07

------------------------------Saturation indices-------------------------------

  Phase               SI** log IAP   log K(298 K,   1 atm)

  H2O(g)           -1.50     -0.00    1.50  H2O

**For a gas, SI = log10(fugacity). Fugacity = pressure * phi / 1 atm.
  For ideal gases, phi = 1.

-----------------------------------------
Beginning of batch-reaction calculations.
-----------------------------------------

Reaction step 1.

WARNING: Element C is contained in Aragonite (which has 0.0 mass),	
but is not in solution or other phases.
WARNING: Element C is contained in Calcite (which has 0.0 mass),	
but is not in solution or other phases.
Using solution 0.	Spacer-filled_channels
Using pure phase assemblage 1.	
Using reaction 1.	

Reaction 1.	

	  8.917e+00 moles of the following reaction have been added:

	                 Relative
	Reactant            moles

	H2O                 -1.00000

	                 Relative
	Element             moles
	H                   -2.00000
	O                   -1.00000

-------------------------------Phase assemblage--------------------------------

                                                      Moles in assemblage
Phase               SI  log IAP  log K(T, P)   Initial       Final       Delta

Anhydrite        -0.35    -4.60     -4.25    0.000e+00           0   0.000e+00
Aragonite            Element not present.    0.000e+00           0   0.000e+00
Calcite              Element not present.    0.000e+00           0   0.000e+00
Gypsum            0.00    -4.60     -4.60    0.000e+00   8.937e-02   8.937e-02
Portlandite     -18.75   -23.94     -5.19    0.000e+00           0   0.000e+00

-----------------------------Solution composition------------------------------

	Elements           Molality       Moles

	Ca                1.501e-02   2.585e-01
	S                 1.562e-02   2.689e-01

----------------------------Description of solution----------------------------

                                       pH  =   3.165      Charge balance
                                       pe  =   4.000      Adjusted to redox equilibrium
      Specific Conductance (µS/cm,  25°C)  = 3261
                          Density (g/cm³)  =   0.99915
                               Volume (L)  =  17.26513
                        Activity of water  =   1.000
                 Ionic strength (mol/kgw)  =   6.112e-02
                       Mass of water (kg)  =   1.721e+01
                 Total alkalinity (eq/kg)  =  -1.213e-03
                         Temperature (°C)  =  25.00
                  Electrical balance (eq)  =   1.099e-14
 Percent error, 100*(Cat-|An|)/(Cat+|An|)  =   0.00
                               Iterations  =  13
                         Gamma iterations  =   4
                      Osmotic coefficient  =   0.70260
                         Density of water  =   0.99704
                                  Total H  = 1.911021e+03
                                  Total O  = 9.565757e+02

----------------------------Distribution of species----------------------------

                                                    MacInnes  MacInnes
                                MacInnes       Log       Log       Log    mole V
   Species          Molality    Activity  Molality  Activity     Gamma   cm³/mol

   H+              8.341e-04   6.834e-04    -3.079    -3.165    -0.087      0.00
   OH-             2.003e-11   1.481e-11   -10.698   -10.830    -0.131     -3.84
   H2O             5.551e+01   9.996e-01     1.744    -0.000     0.000     18.07
Ca            1.501e-02
   Ca+2            1.501e-02   5.258e-03    -1.823    -2.279    -0.456    -17.57
S(6)          1.562e-02
   SO4-2           1.524e-02   4.775e-03    -1.817    -2.321    -0.504     15.48
   HSO4-           3.790e-04   3.109e-04    -3.421    -3.507    -0.086     40.48

------------------------------Saturation indices-------------------------------

  Phase               SI** log IAP   log K(298 K,   1 atm)

  Anhydrite        -0.35     -4.60   -4.25  CaSO4
  Gypsum            0.00     -4.60   -4.60  CaSO4:2H2O
  H2O(g)           -1.50     -0.00    1.50  H2O
  Portlandite     -18.75    -23.94   -5.19  Ca(OH)2

**For a gas, SI = log10(fugacity). Fugacity = pressure * phi / 1 atm.
  For ideal gases, phi = 1.

------------------------------------
Beginning of transport calculations.
------------------------------------

-------------------------------
Equilibrating initial solutions
-------------------------------

Using solution 0.	Spacer-filled_channels

-----------------------------Solution composition------------------------------

	Elements           Molality       Moles

	Ca                2.002e-02   3.478e-01
	S                 2.062e-02   3.583e-01

----------------------------Description of solution----------------------------

                                       pH  =   3.201      Charge balance
                                       pe  =   4.000      Adjusted to redox equilibrium
      Specific Conductance (µS/cm,  25°C)  = 4128
                          Density (g/cm³)  =   0.99984
                               Volume (L)  =  17.42940
                        Activity of water  =   0.999
                 Ionic strength (mol/kgw)  =   8.103e-02
                       Mass of water (kg)  =   1.738e+01
                 Total alkalinity (eq/kg)  =  -1.202e-03
                         Temperature (°C)  =  25.00
                  Electrical balance (eq)  =   1.066e-14
 Percent error, 100*(Cat-|An|)/(Cat+|An|)  =   0.00
                               Iterations  =   1 (14 overall)
                         Gamma iterations  =   1
                      Osmotic coefficient  =   0.68395
                         Density of water  =   0.99704
                                  Total H  = 1.929212e+03
                                  Total O  = 9.660287e+02

----------------------------Distribution of species----------------------------

                                                    MacInnes  MacInnes
                                MacInnes       Log       Log       Log    mole V
   Species          Molality    Activity  Molality  Activity     Gamma   cm³/mol

   H+              7.839e-04   6.295e-04    -3.106    -3.201    -0.095      0.00
   OH-             2.269e-11   1.607e-11   -10.644   -10.794    -0.150     -3.78
   H2O             5.551e+01   9.995e-01     1.744    -0.000     0.000     18.07
Ca            2.002e-02
   Ca+2            2.002e-02   6.409e-03    -1.699    -2.193    -0.495    -17.49
S(6)          2.062e-02
   SO4-2           2.020e-02   5.602e-03    -1.695    -2.252    -0.557     15.67
   HSO4-           4.177e-04   3.359e-04    -3.379    -3.474    -0.095     40.51

------------------------------Saturation indices-------------------------------

  Phase               SI** log IAP   log K(298 K,   1 atm)

  Anhydrite        -0.19     -4.44   -4.25  CaSO4
  Gypsum            0.16     -4.45   -4.60  CaSO4:2H2O
  H2O(g)           -1.50     -0.00    1.50  H2O
  Portlandite     -18.59    -23.78   -5.19  Ca(OH)2

**For a gas, SI = log10(fugacity). Fugacity = pressure * phi / 1 atm.
  For ideal gases, phi = 1.

Using solution 1.	Initial solution in the RO module
Using pure phase assemblage 1.	

-------------------------------Phase assemblage--------------------------------

                                                      Moles in assemblage
Phase               SI  log IAP  log K(T, P)   Initial       Final       Delta

Anhydrite            Element not present.    0.000e+00               0.000e+00
Aragonite            Element not present.    0.000e+00               0.000e+00
Calcite              Element not present.    0.000e+00               0.000e+00
Gypsum               Element not present.    0.000e+00               0.000e+00
Portlandite          Element not present.    0.000e+00               0.000e+00

-----------------------------Solution composition------------------------------

	Elements           Molality       Moles

	Pure water     

----------------------------Description of solution----------------------------

                                       pH  =   7.000      Charge balance
                                       pe  =   4.000      Adjusted to redox equilibrium
      Specific Conductance (µS/cm,  25°C)  = 0
                          Density (g/cm³)  =   0.99704
                               Volume (L)  =  17.42969
                        Activity of water  =   1.000
                 Ionic strength (mol/kgw)  =   1.006e-07
                       Mass of water (kg)  =   1.738e+01
                 Total alkalinity (eq/kg)  =   1.216e-09
                         Temperature (°C)  =  25.00
                  Electrical balance (eq)  =  -2.114e-08
 Percent error, 100*(Cat-|An|)/(Cat+|An|)  =  -0.60
                               Iterations  =   1 (15 overall)
                         Gamma iterations  =   1
                      Osmotic coefficient  =   0.99988
                         Density of water  =   0.99704
                                  Total H  = 1.929191e+03
                                  Total O  = 9.645956e+02

----------------------------Distribution of species----------------------------

                                                    MacInnes  MacInnes
                                MacInnes       Log       Log       Log    mole V
   Species          Molality    Activity  Molality  Activity     Gamma   cm³/mol

   OH-             1.013e-07   1.012e-07    -6.995    -6.995    -0.000     -4.14
   H+              1.000e-07   1.000e-07    -7.000    -7.000    -0.000      0.00
   H2O             5.551e+01   1.000e+00     1.744    -0.000     0.000     18.07

------------------------------Saturation indices-------------------------------

  Phase               SI** log IAP   log K(298 K,   1 atm)

  H2O(g)           -1.50     -0.00    1.50  H2O

**For a gas, SI = log10(fugacity). Fugacity = pressure * phi / 1 atm.
  For ideal gases, phi = 1.

Using solution 2.	Initial solution in the RO module
Using pure phase assemblage 2.	

-------------------------------Phase assemblage--------------------------------

                                                      Moles in assemblage
Phase               SI  log IAP  log K(T, P)   Initial       Final       Delta

Anhydrite            Element not present.    0.000e+00               0.000e+00
Aragonite            Element not present.    0.000e+00               0.000e+00
Calcite              Element not present.    0.000e+00               0.000e+00
Gypsum               Element not present.    0.000e+00               0.000e+00
Portlandite          Element not present.    0.000e+00               0.000e+00

-----------------------------Solution composition------------------------------

	Elements           Molality       Moles

	Pure water     

----------------------------Description of solution----------------------------

                                       pH  =   7.000      Charge balance
                                       pe  =   4.000      Adjusted to redox equilibrium
      Specific Conductance (µS/cm,  25°C)  = 0
                          Density (g/cm³)  =   0.99704
                               Volume (L)  =  17.42969
                        Activity of water  =   1.000
                 Ionic strength (mol/kgw)  =   1.006e-07
                       Mass of water (kg)  =   1.738e+01
                 Total alkalinity (eq/kg)  =   1.216e-09
                         Temperature (°C)  =  25.00
                  Electrical balance (eq)  =  -2.114e-08
 Percent error, 100*(Cat-|An|)/(Cat+|An|)  =  -0.60
                               Iterations  =   1 (16 overall)
                         Gamma iterations  =   1
                      Osmotic coefficient  =   0.99988
                         Density of water  =   0.99704
                                  Total H  = 1.929191e+03
                                  Total O  = 9.645956e+02

----------------------------Distribution of species----------------------------

                                                    MacInnes  MacInnes
                                MacInnes       Log       Log       Log    mole V
   Species          Molality    Activity  Molality  Activity     Gamma   cm³/mol

   OH-             1.013e-07   1.012e-07    -6.995    -6.995    -0.000     -4.14
   H+              1.000e-07   1.000e-07    -7.000    -7.000    -0.000      0.00
   H2O             5.551e+01   1.000e+00     1.744    -0.000     0.000     18.07

------------------------------Saturation indices-------------------------------

  Phase               SI** log IAP   log K(298 K,   1 atm)

  H2O(g)           -1.50     -0.00    1.50  H2O

**For a gas, SI = log10(fugacity). Fugacity = pressure * phi / 1 atm.
  For ideal gases, phi = 1.

Using solution 3.	Initial solution in the RO module
Using pure phase assemblage 3.	

-------------------------------Phase assemblage--------------------------------

                                                      Moles in assemblage
Phase               SI  log IAP  log K(T, P)   Initial       Final       Delta

Anhydrite            Element not present.    0.000e+00               0.000e+00
Aragonite            Element not present.    0.000e+00               0.000e+00
Calcite              Element not present.    0.000e+00               0.000e+00
Gypsum               Element not present.    0.000e+00               0.000e+00
Portlandite          Element not present.    0.000e+00               0.000e+00

-----------------------------Solution composition------------------------------

	Elements           Molality       Moles

	Pure water     

----------------------------Description of solution----------------------------

                                       pH  =   7.000      Charge balance
                                       pe  =   4.000      Adjusted to redox equilibrium
      Specific Conductance (µS/cm,  25°C)  = 0
                          Density (g/cm³)  =   0.99704
                               Volume (L)  =  17.42969
                        Activity of water  =   1.000
                 Ionic strength (mol/kgw)  =   1.006e-07
                       Mass of water (kg)  =   1.738e+01
                 Total alkalinity (eq/kg)  =   1.216e-09
                         Temperature (°C)  =  25.00
                  Electrical balance (eq)  =  -2.114e-08
 Percent error, 100*(Cat-|An|)/(Cat+|An|)  =  -0.60
                               Iterations  =   1 (17 overall)
                         Gamma iterations  =   1
                      Osmotic coefficient  =   0.99988
                         Density of water  =   0.99704
                                  Total H  = 1.929191e+03
                                  Total O  = 9.645956e+02

----------------------------Distribution of species----------------------------

                                                    MacInnes  MacInnes
                                MacInnes       Log       Log       Log    mole V
   Species          Molality    Activity  Molality  Activity     Gamma   cm³/mol

   OH-             1.013e-07   1.012e-07    -6.995    -6.995    -0.000     -4.14
   H+              1.000e-07   1.000e-07    -7.000    -7.000    -0.000      0.00
   H2O             5.551e+01   1.000e+00     1.744    -0.000     0.000     18.07

------------------------------Saturation indices-------------------------------

  Phase               SI** log IAP   log K(298 K,   1 atm)

  H2O(g)           -1.50     -0.00    1.50  H2O

**For a gas, SI = log10(fugacity). Fugacity = pressure * phi / 1 atm.
  For ideal gases, phi = 1.

Using solution 4.	Initial solution in the RO module
Using pure phase assemblage 4.	

-------------------------------Phase assemblage--------------------------------

                                                      Moles in assemblage
Phase               SI  log IAP  log K(T, P)   Initial       Final       Delta

Anhydrite            Element not present.    0.000e+00               0.000e+00
Aragonite            Element not present.    0.000e+00               0.000e+00
Calcite              Element not present.    0.000e+00               0.000e+00
Gypsum               Element not present.    0.000e+00               0.000e+00
Portlandite          Element not present.    0.000e+00               0.000e+00

-----------------------------Solution composition------------------------------

	Elements           Molality       Moles

	Pure water     

----------------------------Description of solution----------------------------

                                       pH  =   7.000      Charge balance
                                       pe  =   4.000      Adjusted to redox equilibrium
      Specific Conductance (µS/cm,  25°C)  = 0
                          Density (g/cm³)  =   0.99704
                               Volume (L)  =  17.42969
                        Activity of water  =   1.000
                 Ionic strength (mol/kgw)  =   1.006e-07
                       Mass of water (kg)  =   1.738e+01
                 Total alkalinity (eq/kg)  =   1.216e-09
                         Temperature (°C)  =  25.00
                  Electrical balance (eq)  =  -2.114e-08
 Percent error, 100*(Cat-|An|)/(Cat+|An|)  =  -0.60
                               Iterations  =   1 (18 overall)
                         Gamma iterations  =   1
                      Osmotic coefficient  =   0.99988
                         Density of water  =   0.99704
                                  Total H  = 1.929191e+03
                                  Total O  = 9.645956e+02

----------------------------Distribution of species----------------------------

                                                    MacInnes  MacInnes
                                MacInnes       Log       Log       Log    mole V
   Species          Molality    Activity  Molality  Activity     Gamma   cm³/mol

   OH-             1.013e-07   1.012e-07    -6.995    -6.995    -0.000     -4.14
   H+              1.000e-07   1.000e-07    -7.000    -7.000    -0.000      0.00
   H2O             5.551e+01   1.000e+00     1.744    -0.000     0.000     18.07

------------------------------Saturation indices-------------------------------

  Phase               SI** log IAP   log K(298 K,   1 atm)

  H2O(g)           -1.50     -0.00    1.50  H2O

**For a gas, SI = log10(fugacity). Fugacity = pressure * phi / 1 atm.
  For ideal gases, phi = 1.

Using solution 5.	Initial solution in the RO module
Using pure phase assemblage 5.	

-------------------------------Phase assemblage--------------------------------

                                                      Moles in assemblage
Phase               SI  log IAP  log K(T, P)   Initial       Final       Delta

Anhydrite            Element not present.    0.000e+00               0.000e+00
Aragonite            Element not present.    0.000e+00               0.000e+00
Calcite              Element not present.    0.000e+00               0.000e+00
Gypsum               Element not present.    0.000e+00               0.000e+00
Portlandite          Element not present.    0.000e+00               0.000e+00

-----------------------------Solution composition------------------------------

	Elements           Molality       Moles

	Pure water     

----------------------------Description of solution----------------------------

                                       pH  =   7.000      Charge balance
                                       pe  =   4.000      Adjusted to redox equilibrium
      Specific Conductance (µS/cm,  25°C)  = 0
                          Density (g/cm³)  =   0.99704
                               Volume (L)  =  17.42969
                        Activity of water  =   1.000
                 Ionic strength (mol/kgw)  =   1.006e-07
                       Mass of water (kg)  =   1.738e+01
                 Total alkalinity (eq/kg)  =   1.216e-09
                         Temperature (°C)  =  25.00
                  Electrical balance (eq)  =  -2.114e-08
 Percent error, 100*(Cat-|An|)/(Cat+|An|)  =  -0.60
                               Iterations  =   1 (19 overall)
                         Gamma iterations  =   1
                      Osmotic coefficient  =   0.99988
                         Density of water  =   0.99704
                                  Total H  = 1.929191e+03
                                  Total O  = 9.645956e+02

----------------------------Distribution of species----------------------------

                                                    MacInnes  MacInnes
                                MacInnes       Log       Log       Log    mole V
   Species          Molality    Activity  Molality  Activity     Gamma   cm³/mol

   OH-             1.013e-07   1.012e-07    -6.995    -6.995    -0.000     -4.14
   H+              1.000e-07   1.000e-07    -7.000    -7.000    -0.000      0.00
   H2O             5.551e+01   1.000e+00     1.744    -0.000     0.000     18.07

------------------------------Saturation indices-------------------------------

  Phase               SI** log IAP   log K(298 K,   1 atm)

  H2O(g)           -1.50     -0.00    1.50  H2O

**For a gas, SI = log10(fugacity). Fugacity = pressure * phi / 1 atm.
  For ideal gases, phi = 1.

Using solution 6.	Initial solution in the RO module
Using pure phase assemblage 6.	

-------------------------------Phase assemblage--------------------------------

                                                      Moles in assemblage
Phase               SI  log IAP  log K(T, P)   Initial       Final       Delta

Anhydrite            Element not present.    0.000e+00               0.000e+00
Aragonite            Element not present.    0.000e+00               0.000e+00
Calcite              Element not present.    0.000e+00               0.000e+00
Gypsum               Element not present.    0.000e+00               0.000e+00
Portlandite          Element not present.    0.000e+00               0.000e+00

-----------------------------Solution composition------------------------------

	Elements           Molality       Moles

	Pure water     

----------------------------Description of solution----------------------------

                                       pH  =   7.000      Charge balance
                                       pe  =   4.000      Adjusted to redox equilibrium
      Specific Conductance (µS/cm,  25°C)  = 0
                          Density (g/cm³)  =   0.99704
                               Volume (L)  =  17.42969
                        Activity of water  =   1.000
                 Ionic strength (mol/kgw)  =   1.006e-07
                       Mass of water (kg)  =   1.738e+01
                 Total alkalinity (eq/kg)  =   1.216e-09
                         Temperature (°C)  =  25.00
                  Electrical balance (eq)  =  -2.114e-08
 Percent error, 100*(Cat-|An|)/(Cat+|An|)  =  -0.60
                               Iterations  =   1 (20 overall)
                         Gamma iterations  =   1
                      Osmotic coefficient  =   0.99988
                         Density of water  =   0.99704
                                  Total H  = 1.929191e+03
                                  Total O  = 9.645956e+02

----------------------------Distribution of species----------------------------

                                                    MacInnes  MacInnes
                                MacInnes       Log       Log       Log    mole V
   Species          Molality    Activity  Molality  Activity     Gamma   cm³/mol

   OH-             1.013e-07   1.012e-07    -6.995    -6.995    -0.000     -4.14
   H+              1.000e-07   1.000e-07    -7.000    -7.000    -0.000      0.00
   H2O             5.551e+01   1.000e+00     1.744    -0.000     0.000     18.07

------------------------------Saturation indices-------------------------------

  Phase               SI** log IAP   log K(298 K,   1 atm)

  H2O(g)           -1.50     -0.00    1.50  H2O

**For a gas, SI = log10(fugacity). Fugacity = pressure * phi / 1 atm.
  For ideal gases, phi = 1.

Using solution 7.	Initial solution in the RO module
Using pure phase assemblage 7.	

-------------------------------Phase assemblage--------------------------------

                                                      Moles in assemblage
Phase               SI  log IAP  log K(T, P)   Initial       Final       Delta

Anhydrite            Element not present.    0.000e+00               0.000e+00
Aragonite            Element not present.    0.000e+00               0.000e+00
Calcite              Element not present.    0.000e+00               0.000e+00
Gypsum               Element not present.    0.000e+00               0.000e+00
Portlandite          Element not present.    0.000e+00               0.000e+00

-----------------------------Solution composition------------------------------

	Elements           Molality       Moles

	Pure water     

----------------------------Description of solution----------------------------

                                       pH  =   7.000      Charge balance
                                       pe  =   4.000      Adjusted to redox equilibrium
      Specific Conductance (µS/cm,  25°C)  = 0
                          Density (g/cm³)  =   0.99704
                               Volume (L)  =  17.42969
                        Activity of water  =   1.000
                 Ionic strength (mol/kgw)  =   1.006e-07
                       Mass of water (kg)  =   1.738e+01
                 Total alkalinity (eq/kg)  =   1.216e-09
                         Temperature (°C)  =  25.00
                  Electrical balance (eq)  =  -2.114e-08
 Percent error, 100*(Cat-|An|)/(Cat+|An|)  =  -0.60
                               Iterations  =   1 (21 overall)
                         Gamma iterations  =   1
                      Osmotic coefficient  =   0.99988
                         Density of water  =   0.99704
                                  Total H  = 1.929191e+03
                                  Total O  = 9.645956e+02

----------------------------Distribution of species----------------------------

                                                    MacInnes  MacInnes
                                MacInnes       Log       Log       Log    mole V
   Species          Molality    Activity  Molality  Activity     Gamma   cm³/mol

   OH-             1.013e-07   1.012e-07    -6.995    -6.995    -0.000     -4.14
   H+              1.000e-07   1.000e-07    -7.000    -7.000    -0.000      0.00
   H2O             5.551e+01   1.000e+00     1.744    -0.000     0.000     18.07

------------------------------Saturation indices-------------------------------

  Phase               SI** log IAP   log K(298 K,   1 atm)

  H2O(g)           -1.50     -0.00    1.50  H2O

**For a gas, SI = log10(fugacity). Fugacity = pressure * phi / 1 atm.
  For ideal gases, phi = 1.

Using solution 8.	Initial solution in the RO module
Using pure phase assemblage 8.	

-------------------------------Phase assemblage--------------------------------

                                                      Moles in assemblage
Phase               SI  log IAP  log K(T, P)   Initial       Final       Delta

Anhydrite            Element not present.    0.000e+00               0.000e+00
Aragonite            Element not present.    0.000e+00               0.000e+00
Calcite              Element not present.    0.000e+00               0.000e+00
Gypsum               Element not present.    0.000e+00               0.000e+00
Portlandite          Element not present.    0.000e+00               0.000e+00

-----------------------------Solution composition------------------------------

	Elements           Molality       Moles

	Pure water     

----------------------------Description of solution----------------------------

                                       pH  =   7.000      Charge balance
                                       pe  =   4.000      Adjusted to redox equilibrium
      Specific Conductance (µS/cm,  25°C)  = 0
                          Density (g/cm³)  =   0.99704
                               Volume (L)  =  17.42969
                        Activity of water  =   1.000
                 Ionic strength (mol/kgw)  =   1.006e-07
                       Mass of water (kg)  =   1.738e+01
                 Total alkalinity (eq/kg)  =   1.216e-09
                         Temperature (°C)  =  25.00
                  Electrical balance (eq)  =  -2.114e-08
 Percent error, 100*(Cat-|An|)/(Cat+|An|)  =  -0.60
                               Iterations  =   1 (22 overall)
                         Gamma iterations  =   1
                      Osmotic coefficient  =   0.99988
                         Density of water  =   0.99704
                                  Total H  = 1.929191e+03
                                  Total O  = 9.645956e+02

----------------------------Distribution of species----------------------------

                                                    MacInnes  MacInnes
                                MacInnes       Log       Log       Log    mole V
   Species          Molality    Activity  Molality  Activity     Gamma   cm³/mol

   OH-             1.013e-07   1.012e-07    -6.995    -6.995    -0.000     -4.14
   H+              1.000e-07   1.000e-07    -7.000    -7.000    -0.000      0.00
   H2O             5.551e+01   1.000e+00     1.744    -0.000     0.000     18.07

------------------------------Saturation indices-------------------------------

  Phase               SI** log IAP   log K(298 K,   1 atm)

  H2O(g)           -1.50     -0.00    1.50  H2O

**For a gas, SI = log10(fugacity). Fugacity = pressure * phi / 1 atm.
  For ideal gases, phi = 1.

Using solution 9.	Initial solution in the RO module
Using pure phase assemblage 9.	

-------------------------------Phase assemblage--------------------------------

                                                      Moles in assemblage
Phase               SI  log IAP  log K(T, P)   Initial       Final       Delta

Anhydrite            Element not present.    0.000e+00               0.000e+00
Aragonite            Element not present.    0.000e+00               0.000e+00
Calcite              Element not present.    0.000e+00               0.000e+00
Gypsum               Element not present.    0.000e+00               0.000e+00
Portlandite          Element not present.    0.000e+00               0.000e+00

-----------------------------Solution composition------------------------------

	Elements           Molality       Moles

	Pure water     

----------------------------Description of solution----------------------------

                                       pH  =   7.000      Charge balance
                                       pe  =   4.000      Adjusted to redox equilibrium
      Specific Conductance (µS/cm,  25°C)  = 0
                          Density (g/cm³)  =   0.99704
                               Volume (L)  =  17.42969
                        Activity of water  =   1.000
                 Ionic strength (mol/kgw)  =   1.006e-07
                       Mass of water (kg)  =   1.738e+01
                 Total alkalinity (eq/kg)  =   1.216e-09
                         Temperature (°C)  =  25.00
                  Electrical balance (eq)  =  -2.114e-08
 Percent error, 100*(Cat-|An|)/(Cat+|An|)  =  -0.60
                               Iterations  =   1 (23 overall)
                         Gamma iterations  =   1
                      Osmotic coefficient  =   0.99988
                         Density of water  =   0.99704
                                  Total H  = 1.929191e+03
                                  Total O  = 9.645956e+02

----------------------------Distribution of species----------------------------

                                                    MacInnes  MacInnes
                                MacInnes       Log       Log       Log    mole V
   Species          Molality    Activity  Molality  Activity     Gamma   cm³/mol

   OH-             1.013e-07   1.012e-07    -6.995    -6.995    -0.000     -4.14
   H+              1.000e-07   1.000e-07    -7.000    -7.000    -0.000      0.00
   H2O             5.551e+01   1.000e+00     1.744    -0.000     0.000     18.07

------------------------------Saturation indices-------------------------------

  Phase               SI** log IAP   log K(298 K,   1 atm)

  H2O(g)           -1.50     -0.00    1.50  H2O

**For a gas, SI = log10(fugacity). Fugacity = pressure * phi / 1 atm.
  For ideal gases, phi = 1.

Using solution 10.	Initial solution in the RO module
Using pure phase assemblage 10.	

-------------------------------Phase assemblage--------------------------------

                                                      Moles in assemblage
Phase               SI  log IAP  log K(T, P)   Initial       Final       Delta

Anhydrite            Element not present.    0.000e+00               0.000e+00
Aragonite            Element not present.    0.000e+00               0.000e+00
Calcite              Element not present.    0.000e+00               0.000e+00
Gypsum               Element not present.    0.000e+00               0.000e+00
Portlandite          Element not present.    0.000e+00               0.000e+00

-----------------------------Solution composition------------------------------

	Elements           Molality       Moles

	Pure water     

----------------------------Description of solution----------------------------

                                       pH  =   7.000      Charge balance
                                       pe  =   4.000      Adjusted to redox equilibrium
      Specific Conductance (µS/cm,  25°C)  = 0
                          Density (g/cm³)  =   0.99704
                               Volume (L)  =  17.42969
                        Activity of water  =   1.000
                 Ionic strength (mol/kgw)  =   1.006e-07
                       Mass of water (kg)  =   1.738e+01
                 Total alkalinity (eq/kg)  =   1.216e-09
                         Temperature (°C)  =  25.00
                  Electrical balance (eq)  =  -2.114e-08
 Percent error, 100*(Cat-|An|)/(Cat+|An|)  =  -0.60
                               Iterations  =   1 (24 overall)
                         Gamma iterations  =   1
                      Osmotic coefficient  =   0.99988
                         Density of water  =   0.99704
                                  Total H  = 1.929191e+03
                                  Total O  = 9.645956e+02

----------------------------Distribution of species----------------------------

                                                    MacInnes  MacInnes
                                MacInnes       Log       Log       Log    mole V
   Species          Molality    Activity  Molality  Activity     Gamma   cm³/mol

   OH-             1.013e-07   1.012e-07    -6.995    -6.995    -0.000     -4.14
   H+              1.000e-07   1.000e-07    -7.000    -7.000    -0.000      0.00
   H2O             5.551e+01   1.000e+00     1.744    -0.000     0.000     18.07

------------------------------Saturation indices-------------------------------

  Phase               SI** log IAP   log K(298 K,   1 atm)

  H2O(g)           -1.50     -0.00    1.50  H2O

**For a gas, SI = log10(fugacity). Fugacity = pressure * phi / 1 atm.
  For ideal gases, phi = 1.

Using solution 11.	Initial solution in the RO module
Using pure phase assemblage 11.	

-------------------------------Phase assemblage--------------------------------

                                                      Moles in assemblage
Phase               SI  log IAP  log K(T, P)   Initial       Final       Delta

Anhydrite            Element not present.    0.000e+00               0.000e+00
Aragonite            Element not present.    0.000e+00               0.000e+00
Calcite              Element not present.    0.000e+00               0.000e+00
Gypsum               Element not present.    0.000e+00               0.000e+00
Portlandite          Element not present.    0.000e+00               0.000e+00

-----------------------------Solution composition------------------------------

	Elements           Molality       Moles

	Pure water     

----------------------------Description of solution----------------------------

                                       pH  =   7.000      Charge balance
                                       pe  =   4.000      Adjusted to redox equilibrium
      Specific Conductance (µS/cm,  25°C)  = 0
                          Density (g/cm³)  =   0.99704
                               Volume (L)  =  17.42969
                        Activity of water  =   1.000
                 Ionic strength (mol/kgw)  =   1.006e-07
                       Mass of water (kg)  =   1.738e+01
                 Total alkalinity (eq/kg)  =   1.216e-09
                         Temperature (°C)  =  25.00
                  Electrical balance (eq)  =  -2.114e-08
 Percent error, 100*(Cat-|An|)/(Cat+|An|)  =  -0.60
                               Iterations  =   1 (25 overall)
                         Gamma iterations  =   1
                      Osmotic coefficient  =   0.99988
                         Density of water  =   0.99704
                                  Total H  = 1.929191e+03
                                  Total O  = 9.645956e+02

----------------------------Distribution of species----------------------------

                                                    MacInnes  MacInnes
                                MacInnes       Log       Log       Log    mole V
   Species          Molality    Activity  Molality  Activity     Gamma   cm³/mol

   OH-             1.013e-07   1.012e-07    -6.995    -6.995    -0.000     -4.14
   H+              1.000e-07   1.000e-07    -7.000    -7.000    -0.000      0.00
   H2O             5.551e+01   1.000e+00     1.744    -0.000     0.000     18.07

------------------------------Saturation indices-------------------------------

  Phase               SI** log IAP   log K(298 K,   1 atm)

  H2O(g)           -1.50     -0.00    1.50  H2O

**For a gas, SI = log10(fugacity). Fugacity = pressure * phi / 1 atm.
  For ideal gases, phi = 1.

Using solution 12.	Initial solution in the RO module
Using pure phase assemblage 12.	

-------------------------------Phase assemblage--------------------------------

                                                      Moles in assemblage
Phase               SI  log IAP  log K(T, P)   Initial       Final       Delta

Anhydrite            Element not present.    0.000e+00               0.000e+00
Aragonite            Element not present.    0.000e+00               0.000e+00
Calcite              Element not present.    0.000e+00               0.000e+00
Gypsum               Element not present.    0.000e+00               0.000e+00
Portlandite          Element not present.    0.000e+00               0.000e+00

-----------------------------Solution composition------------------------------

	Elements           Molality       Moles

	Pure water     

----------------------------Description of solution----------------------------

                                       pH  =   7.000      Charge balance
                                       pe  =   4.000      Adjusted to redox equilibrium
      Specific Conductance (µS/cm,  25°C)  = 0
                          Density (g/cm³)  =   0.99704
                               Volume (L)  =  17.42969
                        Activity of water  =   1.000
                 Ionic strength (mol/kgw)  =   1.006e-07
                       Mass of water (kg)  =   1.738e+01
                 Total alkalinity (eq/kg)  =   1.216e-09
                         Temperature (°C)  =  25.00
                  Electrical balance (eq)  =  -2.114e-08
 Percent error, 100*(Cat-|An|)/(Cat+|An|)  =  -0.60
                               Iterations  =   1 (26 overall)
                         Gamma iterations  =   1
                      Osmotic coefficient  =   0.99988
                         Density of water  =   0.99704
                                  Total H  = 1.929191e+03
                                  Total O  = 9.645956e+02

----------------------------Distribution of species----------------------------

                                                    MacInnes  MacInnes
                                MacInnes       Log       Log       Log    mole V
   Species          Molality    Activity  Molality  Activity     Gamma   cm³/mol

   OH-             1.013e-07   1.012e-07    -6.995    -6.995    -0.000     -4.14
   H+              1.000e-07   1.000e-07    -7.000    -7.000    -0.000      0.00
   H2O             5.551e+01   1.000e+00     1.744    -0.000     0.000     18.07

------------------------------Saturation indices-------------------------------

  Phase               SI** log IAP   log K(298 K,   1 atm)

  H2O(g)           -1.50     -0.00    1.50  H2O

**For a gas, SI = log10(fugacity). Fugacity = pressure * phi / 1 atm.
  For ideal gases, phi = 1.

Using solution 13.	Initial solution in the RO module

-----------------------------Solution composition------------------------------

	Elements           Molality       Moles

	Pure water     

----------------------------Description of solution----------------------------

                                       pH  =   7.000      Charge balance
                                       pe  =   4.000      Adjusted to redox equilibrium
      Specific Conductance (µS/cm,  25°C)  = 0
                          Density (g/cm³)  =   0.99704
                               Volume (L)  =  17.42969
                        Activity of water  =   1.000
                 Ionic strength (mol/kgw)  =   1.006e-07
                       Mass of water (kg)  =   1.738e+01
                 Total alkalinity (eq/kg)  =   1.216e-09
                         Temperature (°C)  =  25.00
                  Electrical balance (eq)  =  -2.114e-08
 Percent error, 100*(Cat-|An|)/(Cat+|An|)  =  -0.60
                               Iterations  =   1 (27 overall)
                         Gamma iterations  =   1
                      Osmotic coefficient  =   0.99988
                         Density of water  =   0.99704
                                  Total H  = 1.929191e+03
                                  Total O  = 9.645956e+02

----------------------------Distribution of species----------------------------

                                                    MacInnes  MacInnes
                                MacInnes       Log       Log       Log    mole V
   Species          Molality    Activity  Molality  Activity     Gamma   cm³/mol

   OH-             1.013e-07   1.012e-07    -6.995    -6.995    -0.000     -4.14
   H+              1.000e-07   1.000e-07    -7.000    -7.000    -0.000      0.00
   H2O             5.551e+01   1.000e+00     1.744    -0.000     0.000     18.07

------------------------------Saturation indices-------------------------------

  Phase               SI** log IAP   log K(298 K,   1 atm)

  H2O(g)           -1.50     -0.00    1.50  H2O

**For a gas, SI = log10(fugacity). Fugacity = pressure * phi / 1 atm.
  For ideal gases, phi = 1.

Transport step   1. Mixrun   1.

Transport step   1.

Transport step   1. Mixrun   2.

Using solution 0.	Solution after simulation 1.

-----------------------------Solution composition------------------------------

	Elements           Molality       Moles

	Ca                2.002e-02   3.478e-01
	S                 2.062e-02   3.583e-01

----------------------------Description of solution----------------------------

                                       pH  =   3.201      Charge balance
                                       pe  =   4.000      Adjusted to redox equilibrium
      Specific Conductance (µS/cm,  25°C)  = 4128
                          Density (g/cm³)  =   0.99984
                               Volume (L)  =  17.42940
                        Activity of water  =   0.999
                 Ionic strength (mol/kgw)  =   8.103e-02
                       Mass of water (kg)  =   1.738e+01
                 Total alkalinity (eq/kg)  =  -1.202e-03
                         Temperature (°C)  =  25.00
                  Electrical balance (eq)  =   1.066e-14
 Percent error, 100*(Cat-|An|)/(Cat+|An|)  =   0.00
                               Iterations  =   1
                         Gamma iterations  =   1
                      Osmotic coefficient  =   0.68395
                         Density of water  =   0.99704
                                  Total H  = 1.929212e+03
                                  Total O  = 9.660287e+02

----------------------------Distribution of species----------------------------

                                                    MacInnes  MacInnes
                                MacInnes       Log       Log       Log    mole V
   Species          Molality    Activity  Molality  Activity     Gamma   cm³/mol

   H+              7.839e-04   6.295e-04    -3.106    -3.201    -0.095      0.00
   OH-             2.269e-11   1.607e-11   -10.644   -10.794    -0.150     -3.78
   H2O             5.551e+01   9.995e-01     1.744    -0.000     0.000     18.07
Ca            2.002e-02
   Ca+2            2.002e-02   6.409e-03    -1.699    -2.193    -0.495    -17.49
S(6)          2.062e-02
   SO4-2           2.020e-02   5.602e-03    -1.695    -2.252    -0.557     15.67
   HSO4-           4.177e-04   3.359e-04    -3.379    -3.474    -0.095     40.51

------------------------------Saturation indices-------------------------------

  Phase               SI** log IAP   log K(298 K,   1 atm)

  Anhydrite        -0.19     -4.44   -4.25  CaSO4
  Gypsum            0.16     -4.45   -4.60  CaSO4:2H2O
  H2O(g)           -1.50     -0.00    1.50  H2O
  Portlandite     -18.59    -23.78   -5.19  Ca(OH)2

**For a gas, SI = log10(fugacity). Fugacity = pressure * phi / 1 atm.
  For ideal gases, phi = 1.

Using mix 1.	
Using pure phase assemblage 1.	Pure-phase assemblage after simulation 1.
Using reaction 1.	

Mixture 1.	

	  1.652e-07 Solution 0	Solution after simulation 1.                           
	  1.000e+00 Solution 1	Solution after simulation 1.                           
	  8.258e-08 Solution 2	Solution after simulation 1.                           

Reaction 1.	

	  8.917e+00 moles of the following reaction have been added:

	                 Relative
	Reactant            moles

	H2O                 -1.00000

	                 Relative
	Element             moles
	H                   -2.00000
	O                   -1.00000

-------------------------------Phase assemblage--------------------------------

                                                      Moles in assemblage
Phase               SI  log IAP  log K(T, P)   Initial       Final       Delta

Anhydrite        -0.35    -4.60     -4.25    0.000e+00               0.000e+00
Aragonite            Element not present.    0.000e+00               0.000e+00
Calcite              Element not present.    0.000e+00               0.000e+00
Gypsum            0.00    -4.60     -4.60    0.000e+00   8.856e-02   8.856e-02
Portlandite     -18.75   -23.94     -5.19    0.000e+00               0.000e+00

-----------------------------Solution composition------------------------------

	Elements           Molality       Moles

	Ca                1.501e-02   2.593e-01
	S                 1.562e-02   2.697e-01

----------------------------Description of solution----------------------------

                                       pH  =   3.167      Charge balance
                                       pe  =   4.000      Adjusted to redox equilibrium
      Specific Conductance (µS/cm,  25°C)  = 3261
                          Density (g/cm³)  =   0.99915
                               Volume (L)  =  17.31886
                        Activity of water  =   1.000
                 Ionic strength (mol/kgw)  =   6.112e-02
                       Mass of water (kg)  =   1.727e+01
                 Total alkalinity (eq/kg)  =  -1.209e-03
                         Temperature (°C)  =  25.00
                  Electrical balance (eq)  =  -3.109e-15
 Percent error, 100*(Cat-|An|)/(Cat+|An|)  =  -0.00
                               Iterations  =   7
                         Gamma iterations  =   3
                      Osmotic coefficient  =   0.70258
                         Density of water  =   0.99704
                                  Total H  = 1.916969e+03
                                  Total O  = 9.595528e+02

----------------------------Distribution of species----------------------------

                                                    MacInnes  MacInnes
                                MacInnes       Log       Log       Log    mole V
   Species          Molality    Activity  Molality  Activity     Gamma   cm³/mol

   H+              8.315e-04   6.812e-04    -3.080    -3.167    -0.087      0.00
   OH-             2.009e-11   1.485e-11   -10.697   -10.828    -0.131     -3.84
   H2O             5.551e+01   9.996e-01     1.744    -0.000     0.000     18.07
Ca            1.501e-02
   Ca+2            1.501e-02   5.258e-03    -1.823    -2.279    -0.456    -17.57
S(6)          1.562e-02
   SO4-2           1.524e-02   4.775e-03    -1.817    -2.321    -0.504     15.48
   HSO4-           3.778e-04   3.099e-04    -3.423    -3.509    -0.086     40.48

------------------------------Saturation indices-------------------------------

  Phase               SI** log IAP   log K(298 K,   1 atm)

  Anhydrite        -0.35     -4.60   -4.25  CaSO4
  Gypsum            0.00     -4.60   -4.60  CaSO4:2H2O
  H2O(g)           -1.50     -0.00    1.50  H2O
  Portlandite     -18.75    -23.94   -5.19  Ca(OH)2

**For a gas, SI = log10(fugacity). Fugacity = pressure * phi / 1 atm.
  For ideal gases, phi = 1.

Using mix 2.	
Using pure phase assemblage 2.	Pure-phase assemblage after simulation 1.
Using reaction 2.	

Mixture 2.	

	  8.258e-08 Solution 1	Solution after simulation 1.                           
	  1.000e+00 Solution 2	Solution after simulation 1.                           
	  8.258e-08 Solution 3	Solution after simulation 1.                           

Reaction 2.	

	  8.835e+00 moles of the following reaction have been added:

	                 Relative
	Reactant            moles

	H2O                 -1.00000

	                 Relative
	Element             moles
	H                   -2.00000
	O                   -1.00000

-------------------------------Phase assemblage--------------------------------

                                                      Moles in assemblage
Phase               SI  log IAP  log K(T, P)   Initial       Final       Delta

Anhydrite       -12.41   -16.66     -4.25    0.000e+00               0.000e+00
Aragonite            Element not present.    0.000e+00               0.000e+00
Calcite              Element not present.    0.000e+00               0.000e+00
Gypsum          -12.06   -16.66     -4.60    0.000e+00               0.000e+00
Portlandite     -17.14   -22.33     -5.19    0.000e+00               0.000e+00

-----------------------------Solution composition------------------------------

	Elements           Molality       Moles

	Ca                4.584e-09   7.892e-08
	S                 4.734e-09   8.151e-08

----------------------------Description of solution----------------------------

                                       pH  =   6.999      Charge balance
                                       pe  =   4.000      Adjusted to redox equilibrium
      Specific Conductance (µS/cm,  25°C)  = 0
                          Density (g/cm³)  =   0.99704
                               Volume (L)  =  17.26956
                        Activity of water  =   1.000
                 Ionic strength (mol/kgw)  =   1.193e-07
                       Mass of water (kg)  =   1.722e+01
                 Total alkalinity (eq/kg)  =   9.271e-10
                         Temperature (°C)  =  25.00
                  Electrical balance (eq)  =  -2.114e-08
 Percent error, 100*(Cat-|An|)/(Cat+|An|)  =  -0.56
                               Iterations  =   7
                         Gamma iterations  =   2
                      Osmotic coefficient  =   0.99985
                         Density of water  =   0.99704
                                  Total H  = 1.911467e+03
                                  Total O  = 9.557333e+02

----------------------------Distribution of species----------------------------

                                                    MacInnes  MacInnes
                                MacInnes       Log       Log       Log    mole V
   Species          Molality    Activity  Molality  Activity     Gamma   cm³/mol

   OH-             1.011e-07   1.011e-07    -6.995    -6.995    -0.000     -4.14
   H+              1.002e-07   1.001e-07    -6.999    -6.999    -0.000      0.00
   H2O             5.551e+01   1.000e+00     1.744    -0.000     0.000     18.07
Ca            4.584e-09
   Ca+2            4.584e-09   4.576e-09    -8.339    -8.339    -0.001    -18.25
S(6)          4.734e-09
   SO4-2           4.734e-09   4.726e-09    -8.325    -8.325    -0.001     14.18
   HSO4-           4.511e-14   4.509e-14   -13.346   -13.346    -0.000     40.25

------------------------------Saturation indices-------------------------------

  Phase               SI** log IAP   log K(298 K,   1 atm)

  Anhydrite       -12.41    -16.66   -4.25  CaSO4
  Gypsum          -12.06    -16.66   -4.60  CaSO4:2H2O
  H2O(g)           -1.50     -0.00    1.50  H2O
  Portlandite     -17.14    -22.33   -5.19  Ca(OH)2

**For a gas, SI = log10(fugacity). Fugacity = pressure * phi / 1 atm.
  For ideal gases, phi = 1.

Using mix 3.	
Using pure phase assemblage 3.	Pure-phase assemblage after simulation 1.
Using reaction 3.	

Mixture 3.	

	  8.258e-08 Solution 2	Solution after simulation 1.                           
	  1.000e+00 Solution 3	Solution after simulation 1.                           
	  8.258e-08 Solution 4	Solution after simulation 1.                           

Reaction 3.	

	  8.753e+00 moles of the following reaction have been added:

	                 Relative
	Reactant            moles

	H2O                 -1.00000

	                 Relative
	Element             moles
	H                   -2.00000
	O                   -1.00000

-------------------------------Phase assemblage--------------------------------

                                                      Moles in assemblage
Phase               SI  log IAP  log K(T, P)   Initial       Final       Delta

Anhydrite       -26.86   -31.11     -4.25    0.000e+00               0.000e+00
Aragonite            Element not present.    0.000e+00               0.000e+00
Calcite              Element not present.    0.000e+00               0.000e+00
Gypsum          -26.51   -31.11     -4.60    0.000e+00               0.000e+00
Portlandite     -24.36   -29.55     -5.19    0.000e+00               0.000e+00

-----------------------------Solution composition------------------------------

	Elements           Molality       Moles

	Ca                2.755e-16   4.744e-15
	S                 2.837e-16   4.886e-15

----------------------------Description of solution----------------------------

                                       pH  =   7.000      Charge balance
                                       pe  =   4.000      Adjusted to redox equilibrium
      Specific Conductance (µS/cm,  25°C)  = 0
                          Density (g/cm³)  =   0.99704
                               Volume (L)  =  17.27103
                        Activity of water  =   1.000
                 Ionic strength (mol/kgw)  =   1.006e-07
                       Mass of water (kg)  =   1.722e+01
                 Total alkalinity (eq/kg)  =   1.227e-09
                         Temperature (°C)  =  25.00
                  Electrical balance (eq)  =  -2.114e-08
 Percent error, 100*(Cat-|An|)/(Cat+|An|)  =  -0.61
                               Iterations  =   5
                         Gamma iterations  =   2
                      Osmotic coefficient  =   0.99988
                         Density of water  =   0.99704
                                  Total H  = 1.911630e+03
                                  Total O  = 9.558150e+02

----------------------------Distribution of species----------------------------

                                                    MacInnes  MacInnes
                                MacInnes       Log       Log       Log    mole V
   Species          Molality    Activity  Molality  Activity     Gamma   cm³/mol

   OH-             1.013e-07   1.012e-07    -6.995    -6.995    -0.000     -4.14
   H+              1.000e-07   9.999e-08    -7.000    -7.000    -0.000      0.00
   H2O             5.551e+01   1.000e+00     1.744    -0.000     0.000     18.07
Ca            2.755e-16
   Ca+2            2.755e-16   2.751e-16   -15.560   -15.561    -0.001    -18.25
S(6)          2.837e-16
   SO4-2           2.837e-16   2.833e-16   -15.547   -15.548    -0.001     14.18
   HSO4-           2.700e-21   2.699e-21   -20.569   -20.569    -0.000     40.25

------------------------------Saturation indices-------------------------------

  Phase               SI** log IAP   log K(298 K,   1 atm)

  Anhydrite       -26.86    -31.11   -4.25  CaSO4
  Gypsum          -26.51    -31.11   -4.60  CaSO4:2H2O
  H2O(g)           -1.50     -0.00    1.50  H2O
  Portlandite     -24.36    -29.55   -5.19  Ca(OH)2

**For a gas, SI = log10(fugacity). Fugacity = pressure * phi / 1 atm.
  For ideal gases, phi = 1.

Using mix 4.	
Using pure phase assemblage 4.	Pure-phase assemblage after simulation 1.
Using reaction 4.	

Mixture 4.	

	  8.258e-08 Solution 3	Solution after simulation 1.                           
	  1.000e+00 Solution 4	Solution after simulation 1.                           
	  8.258e-08 Solution 5	Solution after simulation 1.                           

Reaction 4.	

	  8.672e+00 moles of the following reaction have been added:

	                 Relative
	Reactant            moles

	H2O                 -1.00000

	                 Relative
	Element             moles
	H                   -2.00000
	O                   -1.00000

-------------------------------Phase assemblage--------------------------------

                                                      Moles in assemblage
Phase               SI  log IAP  log K(T, P)   Initial       Final       Delta

Anhydrite            Element not present.    0.000e+00               0.000e+00
Aragonite            Element not present.    0.000e+00               0.000e+00
Calcite              Element not present.    0.000e+00               0.000e+00
Gypsum               Element not present.    0.000e+00               0.000e+00
Portlandite          Element not present.    0.000e+00               0.000e+00

-----------------------------Solution composition------------------------------

	Elements           Molality       Moles

	Pure water     

----------------------------Description of solution----------------------------

                                       pH  =   7.000      Charge balance
                                       pe  =   4.000      Adjusted to redox equilibrium
      Specific Conductance (µS/cm,  25°C)  = 0
                          Density (g/cm³)  =   0.99704
                               Volume (L)  =  17.27251
                        Activity of water  =   1.000
                 Ionic strength (mol/kgw)  =   1.006e-07
                       Mass of water (kg)  =   1.722e+01
                 Total alkalinity (eq/kg)  =   1.227e-09
                         Temperature (°C)  =  25.00
                  Electrical balance (eq)  =  -2.114e-08
 Percent error, 100*(Cat-|An|)/(Cat+|An|)  =  -0.61
                               Iterations  =   5
                         Gamma iterations  =   2
                      Osmotic coefficient  =   0.99988
                         Density of water  =   0.99704
                                  Total H  = 1.911793e+03
                                  Total O  = 9.558967e+02

----------------------------Distribution of species----------------------------

                                                    MacInnes  MacInnes
                                MacInnes       Log       Log       Log    mole V
   Species          Molality    Activity  Molality  Activity     Gamma   cm³/mol

   OH-             1.013e-07   1.012e-07    -6.995    -6.995    -0.000     -4.14
   H+              1.000e-07   9.999e-08    -7.000    -7.000    -0.000      0.00
   H2O             5.551e+01   1.000e+00     1.744    -0.000     0.000     18.07

------------------------------Saturation indices-------------------------------

  Phase               SI** log IAP   log K(298 K,   1 atm)

  H2O(g)           -1.50     -0.00    1.50  H2O

**For a gas, SI = log10(fugacity). Fugacity = pressure * phi / 1 atm.
  For ideal gases, phi = 1.

Using mix 5.	
Using pure phase assemblage 5.	Pure-phase assemblage after simulation 1.
Using reaction 5.	

Mixture 5.	

	  8.258e-08 Solution 4	Solution after simulation 1.                           
	  1.000e+00 Solution 5	Solution after simulation 1.                           
	  8.258e-08 Solution 6	Solution after simulation 1.                           

Reaction 5.	

	  8.590e+00 moles of the following reaction have been added:

	                 Relative
	Reactant            moles

	H2O                 -1.00000

	                 Relative
	Element             moles
	H                   -2.00000
	O                   -1.00000

-------------------------------Phase assemblage--------------------------------

                                                      Moles in assemblage
Phase               SI  log IAP  log K(T, P)   Initial       Final       Delta

Anhydrite            Element not present.    0.000e+00               0.000e+00
Aragonite            Element not present.    0.000e+00               0.000e+00
Calcite              Element not present.    0.000e+00               0.000e+00
Gypsum               Element not present.    0.000e+00               0.000e+00
Portlandite          Element not present.    0.000e+00               0.000e+00

-----------------------------Solution composition------------------------------

	Elements           Molality       Moles

	Pure water     

----------------------------Description of solution----------------------------

                                       pH  =   7.000      Charge balance
                                       pe  =   4.000      Adjusted to redox equilibrium
      Specific Conductance (µS/cm,  25°C)  = 0
                          Density (g/cm³)  =   0.99704
                               Volume (L)  =  17.27399
                        Activity of water  =   1.000
                 Ionic strength (mol/kgw)  =   1.006e-07
                       Mass of water (kg)  =   1.722e+01
                 Total alkalinity (eq/kg)  =   1.227e-09
                         Temperature (°C)  =  25.00
                  Electrical balance (eq)  =  -2.114e-08
 Percent error, 100*(Cat-|An|)/(Cat+|An|)  =  -0.61
                               Iterations  =   5
                         Gamma iterations  =   2
                      Osmotic coefficient  =   0.99988
                         Density of water  =   0.99704
                                  Total H  = 1.911957e+03
                                  Total O  = 9.559785e+02

----------------------------Distribution of species----------------------------

                                                    MacInnes  MacInnes
                                MacInnes       Log       Log       Log    mole V
   Species          Molality    Activity  Molality  Activity     Gamma   cm³/mol

   OH-             1.013e-07   1.012e-07    -6.995    -6.995    -0.000     -4.14
   H+              1.000e-07   9.999e-08    -7.000    -7.000    -0.000      0.00
   H2O             5.551e+01   1.000e+00     1.744    -0.000     0.000     18.07

------------------------------Saturation indices-------------------------------

  Phase               SI** log IAP   log K(298 K,   1 atm)

  H2O(g)           -1.50     -0.00    1.50  H2O

**For a gas, SI = log10(fugacity). Fugacity = pressure * phi / 1 atm.
  For ideal gases, phi = 1.

Using mix 6.	
Using pure phase assemblage 6.	Pure-phase assemblage after simulation 1.
Using reaction 6.	

Mixture 6.	

	  8.258e-08 Solution 5	Solution after simulation 1.                           
	  1.000e+00 Solution 6	Solution after simulation 1.                           
	  8.258e-08 Solution 7	Solution after simulation 1.                           

Reaction 6.	

	  8.508e+00 moles of the following reaction have been added:

	                 Relative
	Reactant            moles

	H2O                 -1.00000

	                 Relative
	Element             moles
	H                   -2.00000
	O                   -1.00000

-------------------------------Phase assemblage--------------------------------

                                                      Moles in assemblage
Phase               SI  log IAP  log K(T, P)   Initial       Final       Delta

Anhydrite            Element not present.    0.000e+00               0.000e+00
Aragonite            Element not present.    0.000e+00               0.000e+00
Calcite              Element not present.    0.000e+00               0.000e+00
Gypsum               Element not present.    0.000e+00               0.000e+00
Portlandite          Element not present.    0.000e+00               0.000e+00

-----------------------------Solution composition------------------------------

	Elements           Molality       Moles

	Pure water     

----------------------------Description of solution----------------------------

                                       pH  =   7.000      Charge balance
                                       pe  =   4.000      Adjusted to redox equilibrium
      Specific Conductance (µS/cm,  25°C)  = 0
                          Density (g/cm³)  =   0.99704
                               Volume (L)  =  17.27546
                        Activity of water  =   1.000
                 Ionic strength (mol/kgw)  =   1.006e-07
                       Mass of water (kg)  =   1.722e+01
                 Total alkalinity (eq/kg)  =   1.227e-09
                         Temperature (°C)  =  25.00
                  Electrical balance (eq)  =  -2.114e-08
 Percent error, 100*(Cat-|An|)/(Cat+|An|)  =  -0.61
                               Iterations  =   5
                         Gamma iterations  =   2
                      Osmotic coefficient  =   0.99988
                         Density of water  =   0.99704
                                  Total H  = 1.912120e+03
                                  Total O  = 9.560602e+02

----------------------------Distribution of species----------------------------

                                                    MacInnes  MacInnes
                                MacInnes       Log       Log       Log    mole V
   Species          Molality    Activity  Molality  Activity     Gamma   cm³/mol

   OH-             1.013e-07   1.012e-07    -6.995    -6.995    -0.000     -4.14
   H+              1.000e-07   9.999e-08    -7.000    -7.000    -0.000      0.00
   H2O             5.551e+01   1.000e+00     1.744    -0.000     0.000     18.07

------------------------------Saturation indices-------------------------------

  Phase               SI** log IAP   log K(298 K,   1 atm)

  H2O(g)           -1.50     -0.00    1.50  H2O

**For a gas, SI = log10(fugacity). Fugacity = pressure * phi / 1 atm.
  For ideal gases, phi = 1.

Using mix 7.	
Using pure phase assemblage 7.	Pure-phase assemblage after simulation 1.
Using reaction 7.	

Mixture 7.	

	  8.258e-08 Solution 6	Solution after simulation 1.                           
	  1.000e+00 Solution 7	Solution after simulation 1.                           
	  8.258e-08 Solution 8	Solution after simulation 1.                           

Reaction 7.	

	  8.426e+00 moles of the following reaction have been added:

	                 Relative
	Reactant            moles

	H2O                 -1.00000

	                 Relative
	Element             moles
	H                   -2.00000
	O                   -1.00000

-------------------------------Phase assemblage--------------------------------

                                                      Moles in assemblage
Phase               SI  log IAP  log K(T, P)   Initial       Final       Delta

Anhydrite            Element not present.    0.000e+00               0.000e+00
Aragonite            Element not present.    0.000e+00               0.000e+00
Calcite              Element not present.    0.000e+00               0.000e+00
Gypsum               Element not present.    0.000e+00               0.000e+00
Portlandite          Element not present.    0.000e+00               0.000e+00

-----------------------------Solution composition------------------------------

	Elements           Molality       Moles

	Pure water     

----------------------------Description of solution----------------------------

                                       pH  =   7.000      Charge balance
                                       pe  =   4.000      Adjusted to redox equilibrium
      Specific Conductance (µS/cm,  25°C)  = 0
                          Density (g/cm³)  =   0.99704
                               Volume (L)  =  17.27694
                        Activity of water  =   1.000
                 Ionic strength (mol/kgw)  =   1.006e-07
                       Mass of water (kg)  =   1.723e+01
                 Total alkalinity (eq/kg)  =   1.227e-09
                         Temperature (°C)  =  25.00
                  Electrical balance (eq)  =  -2.114e-08
 Percent error, 100*(Cat-|An|)/(Cat+|An|)  =  -0.61
                               Iterations  =   5
                         Gamma iterations  =   2
                      Osmotic coefficient  =   0.99988
                         Density of water  =   0.99704
                                  Total H  = 1.912284e+03
                                  Total O  = 9.561420e+02

----------------------------Distribution of species----------------------------

                                                    MacInnes  MacInnes
                                MacInnes       Log       Log       Log    mole V
   Species          Molality    Activity  Molality  Activity     Gamma   cm³/mol

   OH-             1.013e-07   1.012e-07    -6.995    -6.995    -0.000     -4.14
   H+              1.000e-07   9.999e-08    -7.000    -7.000    -0.000      0.00
   H2O             5.551e+01   1.000e+00     1.744    -0.000     0.000     18.07

------------------------------Saturation indices-------------------------------

  Phase               SI** log IAP   log K(298 K,   1 atm)

  H2O(g)           -1.50     -0.00    1.50  H2O

**For a gas, SI = log10(fugacity). Fugacity = pressure * phi / 1 atm.
  For ideal gases, phi = 1.

Using mix 8.	
Using pure phase assemblage 8.	Pure-phase assemblage after simulation 1.
Using reaction 8.	

Mixture 8.	

	  8.258e-08 Solution 7	Solution after simulation 1.                           
	  1.000e+00 Solution 8	Solution after simulation 1.                           
	  8.258e-08 Solution 9	Solution after simulation 1.                           

Reaction 8.	

	  8.345e+00 moles of the following reaction have been added:

	                 Relative
	Reactant            moles

	H2O                 -1.00000

	                 Relative
	Element             moles
	H                   -2.00000
	O                   -1.00000

-------------------------------Phase assemblage--------------------------------

                                                      Moles in assemblage
Phase               SI  log IAP  log K(T, P)   Initial       Final       Delta

Anhydrite            Element not present.    0.000e+00               0.000e+00
Aragonite            Element not present.    0.000e+00               0.000e+00
Calcite              Element not present.    0.000e+00               0.000e+00
Gypsum               Element not present.    0.000e+00               0.000e+00
Portlandite          Element not present.    0.000e+00               0.000e+00

-----------------------------Solution composition------------------------------

	Elements           Molality       Moles

	Pure water     

----------------------------Description of solution----------------------------

[...]
                        Activity of water  =   1.000
                 Ionic strength (mol/kgw)  =   6.118e-02
                       Mass of water (kg)  =   1.618e+01
                 Total alkalinity (eq/kg)  =  -1.291e-03
                         Temperature (°C)  =  25.00
                  Electrical balance (eq)  =  -2.693e-13
 Percent error, 100*(Cat-|An|)/(Cat+|An|)  =  -0.00
                               Iterations  =   7
                         Gamma iterations  =   3
                      Osmotic coefficient  =   0.70312
                         Density of water  =   0.99704
                                  Total H  = 1.796264e+03
                                  Total O  = 8.991351e+02

----------------------------Distribution of species----------------------------

                                                    MacInnes  MacInnes
                                MacInnes       Log       Log       Log    mole V
   Species          Molality    Activity  Molality  Activity     Gamma   cm³/mol

   H+              8.872e-04   7.268e-04    -3.052    -3.139    -0.087      0.00
   OH-             1.883e-11   1.392e-11   -10.725   -10.856    -0.131     -3.84
   H2O             5.551e+01   9.996e-01     1.744    -0.000     0.000     18.07
Ca            1.501e-02
   Ca+2            1.501e-02   5.255e-03    -1.824    -2.279    -0.456    -17.57
S(6)          1.566e-02
   SO4-2           1.525e-02   4.778e-03    -1.817    -2.321    -0.504     15.48
   HSO4-           4.033e-04   3.308e-04    -3.394    -3.480    -0.086     40.48

------------------------------Saturation indices-------------------------------

  Phase               SI** log IAP   log K(298 K,   1 atm)

  Anhydrite        -0.35     -4.60   -4.25  CaSO4
  Gypsum            0.00     -4.60   -4.60  CaSO4:2H2O
  H2O(g)           -1.50     -0.00    1.50  H2O
  Portlandite     -18.80    -23.99   -5.19  Ca(OH)2

**For a gas, SI = log10(fugacity). Fugacity = pressure * phi / 1 atm.
  For ideal gases, phi = 1.

Using mix 9.	
Using pure phase assemblage 9.	Pure-phase assemblage after simulation 1.
Using reaction 9.	

Mixture 9.	

	  8.258e-08 Solution 8	Solution after simulation 1.                           
	  1.000e+00 Solution 9	Solution after simulation 1.                           
	  8.258e-08 Solution 10	Solution after simulation 1.                           

Reaction 9.	

	  8.263e+00 moles of the following reaction have been added:

	                 Relative
	Reactant            moles

	H2O                 -1.00000

	                 Relative
	Element             moles
	H                   -2.00000
	O                   -1.00000

-------------------------------Phase assemblage--------------------------------

                                                      Moles in assemblage
Phase               SI  log IAP  log K(T, P)   Initial       Final       Delta

Anhydrite        -0.35    -4.60     -4.25    0.000e+00               0.000e+00
Aragonite            Element not present.    0.000e+00               0.000e+00
Calcite              Element not present.    0.000e+00               0.000e+00
Gypsum            0.00    -4.60     -4.60    9.341e-02   9.565e-02   2.242e-03
Portlandite     -18.81   -24.00     -5.19    0.000e+00               0.000e+00

-----------------------------Solution composition------------------------------

	Elements           Molality       Moles

	Ca                1.501e-02   2.407e-01
	S                 1.566e-02   2.511e-01

----------------------------Description of solution----------------------------

                                       pH  =   3.135      Charge balance
                                       pe  =   4.000      Adjusted to redox equilibrium
      Specific Conductance (µS/cm,  25°C)  = 3284
                          Density (g/cm³)  =   0.99916
                               Volume (L)  =  16.07849
                        Activity of water  =   1.000
                 Ionic strength (mol/kgw)  =   6.119e-02
                       Mass of water (kg)  =   1.603e+01
                 Total alkalinity (eq/kg)  =  -1.303e-03
                         Temperature (°C)  =  25.00
                  Electrical balance (eq)  =  -3.081e-13
 Percent error, 100*(Cat-|An|)/(Cat+|An|)  =  -0.00
                               Iterations  =   7
                         Gamma iterations  =   3
                      Osmotic coefficient  =   0.70320
                         Density of water  =   0.99704
                                  Total H  = 1.779675e+03
                                  Total O  = 8.908314e+02

----------------------------Distribution of species----------------------------

                                                    MacInnes  MacInnes
                                MacInnes       Log       Log       Log    mole V
   Species          Molality    Activity  Molality  Activity     Gamma   cm³/mol

   H+              8.954e-04   7.336e-04    -3.048    -3.135    -0.087      0.00
   OH-             1.866e-11   1.379e-11   -10.729   -10.860    -0.131     -3.84
   H2O             5.551e+01   9.996e-01     1.744    -0.000     0.000     18.07
Ca            1.501e-02
   Ca+2            1.501e-02   5.255e-03    -1.824    -2.279    -0.456    -17.57
S(6)          1.566e-02
   SO4-2           1.526e-02   4.778e-03    -1.817    -2.321    -0.504     15.48
   HSO4-           4.071e-04   3.339e-04    -3.390    -3.476    -0.086     40.48

------------------------------Saturation indices-------------------------------

  Phase               SI** log IAP   log K(298 K,   1 atm)

  Anhydrite        -0.35     -4.60   -4.25  CaSO4
  Gypsum            0.00     -4.60   -4.60  CaSO4:2H2O
  H2O(g)           -1.50     -0.00    1.50  H2O
  Portlandite     -18.81    -24.00   -5.19  Ca(OH)2

**For a gas, SI = log10(fugacity). Fugacity = pressure * phi / 1 atm.
  For ideal gases, phi = 1.

Using mix 10.	
Using pure phase assemblage 10.	Pure-phase assemblage after simulation 1.
Using reaction 10.	

Mixture 10.	

	  8.258e-08 Solution 9	Solution after simulation 1.                           
	  1.000e+00 Solution 10	Solution after simulation 1.                           
	  8.258e-08 Solution 11	Solution after simulation 1.                           

Reaction 10.	

	  8.181e+00 moles of the following reaction have been added:

	                 Relative
	Reactant            moles

	H2O                 -1.00000

	                 Relative
	Element             moles
	H                   -2.00000
	O                   -1.00000

-------------------------------Phase assemblage--------------------------------

                                                      Moles in assemblage
Phase               SI  log IAP  log K(T, P)   Initial       Final       Delta

Anhydrite        -0.35    -4.60     -4.25    0.000e+00               0.000e+00
Aragonite            Element not present.    0.000e+00               0.000e+00
Calcite              Element not present.    0.000e+00               0.000e+00
Gypsum            0.00    -4.60     -4.60    9.027e-02   9.249e-02   2.220e-03
Portlandite     -18.82   -24.01     -5.19    0.000e+00               0.000e+00

-----------------------------Solution composition------------------------------

	Elements           Molality       Moles

	Ca                1.501e-02   2.384e-01
	S                 1.567e-02   2.489e-01

----------------------------Description of solution----------------------------

                                       pH  =   3.131      Charge balance
                                       pe  =   4.000      Adjusted to redox equilibrium
      Specific Conductance (µS/cm,  25°C)  = 3287
                          Density (g/cm³)  =   0.99916
                               Volume (L)  =  15.93009
                        Activity of water  =   1.000
                 Ionic strength (mol/kgw)  =   6.120e-02
                       Mass of water (kg)  =   1.588e+01
                 Total alkalinity (eq/kg)  =  -1.315e-03
                         Temperature (°C)  =  25.00
                  Electrical balance (eq)  =  -3.464e-13
 Percent error, 100*(Cat-|An|)/(Cat+|An|)  =  -0.00
                               Iterations  =   7
                         Gamma iterations  =   3
                      Osmotic coefficient  =   0.70328
                         Density of water  =   0.99704
                                  Total H  = 1.763249e+03
                                  Total O  = 8.826097e+02

----------------------------Distribution of species----------------------------

                                                    MacInnes  MacInnes
                                MacInnes       Log       Log       Log    mole V
   Species          Molality    Activity  Molality  Activity     Gamma   cm³/mol

   H+              9.038e-04   7.404e-04    -3.044    -3.131    -0.087      0.00
   OH-             1.849e-11   1.367e-11   -10.733   -10.864    -0.131     -3.84
   H2O             5.551e+01   9.996e-01     1.744    -0.000     0.000     18.07
Ca            1.501e-02
   Ca+2            1.501e-02   5.254e-03    -1.824    -2.279    -0.456    -17.57
S(6)          1.567e-02
   SO4-2           1.526e-02   4.779e-03    -1.817    -2.321    -0.504     15.48
   HSO4-           4.109e-04   3.371e-04    -3.386    -3.472    -0.086     40.48

------------------------------Saturation indices-------------------------------

  Phase               SI** log IAP   log K(298 K,   1 atm)

  Anhydrite        -0.35     -4.60   -4.25  CaSO4
  Gypsum            0.00     -4.60   -4.60  CaSO4:2H2O
  H2O(g)           -1.50     -0.00    1.50  H2O
  Portlandite     -18.82    -24.01   -5.19  Ca(OH)2

**For a gas, SI = log10(fugacity). Fugacity = pressure * phi / 1 atm.
  For ideal gases, phi = 1.

Using mix 11.	
Using pure phase assemblage 11.	Pure-phase assemblage after simulation 1.
Using reaction 11.	

Mixture 11.	

	  8.258e-08 Solution 10	Solution after simulation 1.                           
	  1.000e+00 Solution 11	Solution after simulation 1.                           
	  8.258e-08 Solution 12	Solution after simulation 1.                           

Reaction 11.	

	  8.099e+00 moles of the following reaction have been added:

	                 Relative
	Reactant            moles

	H2O                 -1.00000

	                 Relative
	Element             moles
	H                   -2.00000
	O                   -1.00000

-------------------------------Phase assemblage--------------------------------

                                                      Moles in assemblage
Phase               SI  log IAP  log K(T, P)   Initial       Final       Delta

Anhydrite        -0.35    -4.60     -4.25    0.000e+00               0.000e+00
Aragonite            Element not present.    0.000e+00               0.000e+00
Calcite              Element not present.    0.000e+00               0.000e+00
Gypsum            0.00    -4.60     -4.60    8.717e-02   8.937e-02   2.198e-03
Portlandite     -18.83   -24.02     -5.19    0.000e+00               0.000e+00

-----------------------------Solution composition------------------------------

	Elements           Molality       Moles

	Ca                1.501e-02   2.362e-01
	S                 1.567e-02   2.467e-01

----------------------------Description of solution----------------------------

                                       pH  =   3.127      Charge balance
                                       pe  =   4.000      Adjusted to redox equilibrium
      Specific Conductance (µS/cm,  25°C)  = 3290
                          Density (g/cm³)  =   0.99916
                               Volume (L)  =  15.78317
                        Activity of water  =   1.000
                 Ionic strength (mol/kgw)  =   6.121e-02
                       Mass of water (kg)  =   1.574e+01
                 Total alkalinity (eq/kg)  =  -1.327e-03
                         Temperature (°C)  =  25.00
                  Electrical balance (eq)  =  -3.862e-13
 Percent error, 100*(Cat-|An|)/(Cat+|An|)  =  -0.00
                               Iterations  =   7
                         Gamma iterations  =   3
                      Osmotic coefficient  =   0.70336
                         Density of water  =   0.99704
                                  Total H  = 1.746987e+03
                                  Total O  = 8.744698e+02

----------------------------Distribution of species----------------------------

                                                    MacInnes  MacInnes
                                MacInnes       Log       Log       Log    mole V
   Species          Molality    Activity  Molality  Activity     Gamma   cm³/mol

   H+              9.121e-04   7.472e-04    -3.040    -3.127    -0.087      0.00
   OH-             1.832e-11   1.354e-11   -10.737   -10.868    -0.131     -3.84
   H2O             5.551e+01   9.996e-01     1.744    -0.000     0.000     18.07
Ca            1.501e-02
   Ca+2            1.501e-02   5.254e-03    -1.824    -2.280    -0.456    -17.57
S(6)          1.567e-02
   SO4-2           1.526e-02   4.779e-03    -1.816    -2.321    -0.504     15.48
   HSO4-           4.148e-04   3.402e-04    -3.382    -3.468    -0.086     40.48

------------------------------Saturation indices-------------------------------

  Phase               SI** log IAP   log K(298 K,   1 atm)

  Anhydrite        -0.35     -4.60   -4.25  CaSO4
  Gypsum            0.00     -4.60   -4.60  CaSO4:2H2O
  H2O(g)           -1.50     -0.00    1.50  H2O
  Portlandite     -18.83    -24.02   -5.19  Ca(OH)2

**For a gas, SI = log10(fugacity). Fugacity = pressure * phi / 1 atm.
  For ideal gases, phi = 1.

Using mix 12.	
Using pure phase assemblage 12.	Pure-phase assemblage after simulation 1.
Using reaction 12.	

Mixture 12.	

	  8.258e-08 Solution 11	Solution after simulation 1.                           
	  1.000e+00 Solution 12	Solution after simulation 1.                           
	  0.000e+00 Solution 13	Solution after simulation 1.                           

Reaction 12.	

	  8.018e+00 moles of the following reaction have been added:

	                 Relative
	Reactant            moles

	H2O                 -1.00000

	                 Relative
	Element             moles
	H                   -2.00000
	O                   -1.00000

-------------------------------Phase assemblage--------------------------------

                                                      Moles in assemblage
Phase               SI  log IAP  log K(T, P)   Initial       Final       Delta

Anhydrite        -0.35    -4.60     -4.25    0.000e+00               0.000e+00
Aragonite            Element not present.    0.000e+00               0.000e+00
Calcite              Element not present.    0.000e+00               0.000e+00
Gypsum            0.00    -4.60     -4.60    8.411e-02   8.629e-02   2.175e-03
Portlandite     -18.83   -24.02     -5.19    0.000e+00               0.000e+00

-----------------------------Solution composition------------------------------

	Elements           Molality       Moles

	Ca                1.501e-02   2.340e-01
	S                 1.568e-02   2.445e-01

----------------------------Description of solution----------------------------

                                       pH  =   3.123      Charge balance
                                       pe  =   4.000      Adjusted to redox equilibrium
      Specific Conductance (µS/cm,  25°C)  = 3293
                          Density (g/cm³)  =   0.99916
                               Volume (L)  =  15.63773
                        Activity of water  =   1.000
                 Ionic strength (mol/kgw)  =   6.121e-02
                       Mass of water (kg)  =   1.559e+01
                 Total alkalinity (eq/kg)  =  -1.339e-03
                         Temperature (°C)  =  25.00
                  Electrical balance (eq)  =  -4.247e-13
 Percent error, 100*(Cat-|An|)/(Cat+|An|)  =  -0.00
                               Iterations  =   7
                         Gamma iterations  =   3
                      Osmotic coefficient  =   0.70345
                         Density of water  =   0.99704
                                  Total H  = 1.730889e+03
                                  Total O  = 8.664118e+02

----------------------------Distribution of species----------------------------

                                                    MacInnes  MacInnes
                                MacInnes       Log       Log       Log    mole V
   Species          Molality    Activity  Molality  Activity     Gamma   cm³/mol

   H+              9.206e-04   7.542e-04    -3.036    -3.123    -0.087      0.00
   OH-             1.815e-11   1.342e-11   -10.741   -10.872    -0.131     -3.84
   H2O             5.551e+01   9.996e-01     1.744    -0.000     0.000     18.07
Ca            1.501e-02
   Ca+2            1.501e-02   5.253e-03    -1.824    -2.280    -0.456    -17.57
S(6)          1.568e-02
   SO4-2           1.526e-02   4.780e-03    -1.816    -2.321    -0.504     15.48
   HSO4-           4.187e-04   3.434e-04    -3.378    -3.464    -0.086     40.48

------------------------------Saturation indices-------------------------------

  Phase               SI** log IAP   log K(298 K,   1 atm)

  Anhydrite        -0.35     -4.60   -4.25  CaSO4
  Gypsum            0.00     -4.60   -4.60  CaSO4:2H2O
  H2O(g)           -1.50     -0.00    1.50  H2O
  Portlandite     -18.83    -24.02   -5.19  Ca(OH)2

**For a gas, SI = log10(fugacity). Fugacity = pressure * phi / 1 atm.
  For ideal gases, phi = 1.

Using solution 13.	Solution after simulation 1.

-----------------------------Solution composition------------------------------

	Elements           Molality       Moles

	Pure water     

----------------------------Description of solution----------------------------

                                       pH  =   7.000      Charge balance
                                       pe  =   4.000      Adjusted to redox equilibrium
      Specific Conductance (µS/cm,  25°C)  = 0
                          Density (g/cm³)  =   0.99704
                               Volume (L)  =  17.42969
                        Activity of water  =   1.000
                 Ionic strength (mol/kgw)  =   1.006e-07
                       Mass of water (kg)  =   1.738e+01
                 Total alkalinity (eq/kg)  =   1.216e-09
                         Temperature (°C)  =  25.00
                  Electrical balance (eq)  =  -2.114e-08
 Percent error, 100*(Cat-|An|)/(Cat+|An|)  =  -0.60
                               Iterations  =   1
                         Gamma iterations  =   1
                      Osmotic coefficient  =   0.99988
                         Density of water  =   0.99704
                                  Total H  = 1.929191e+03
                                  Total O  = 9.645956e+02

----------------------------Distribution of species----------------------------

                                                    MacInnes  MacInnes
                                MacInnes       Log       Log       Log    mole V
   Species          Molality    Activity  Molality  Activity     Gamma   cm³/mol

   OH-             1.013e-07   1.012e-07    -6.995    -6.995    -0.000     -4.14
   H+              1.000e-07   1.000e-07    -7.000    -7.000    -0.000      0.00
   H2O             5.551e+01   1.000e+00     1.744    -0.000     0.000     18.07

------------------------------Saturation indices-------------------------------

  Phase               SI** log IAP   log K(298 K,   1 atm)

  H2O(g)           -1.50     -0.00    1.50  H2O

**For a gas, SI = log10(fugacity). Fugacity = pressure * phi / 1 atm.
  For ideal gases, phi = 1.

------------------
End of simulation.
------------------

------------------------------------
Reading input data for simulation 2.
------------------------------------

--------------------------------
End of Run after 37.376 Seconds.
--------------------------------

