   Input file: C:\Users\Andrew Freiburger\Dropbox\My PC (DESKTOP-M302P50)\Documents\UVic Civil Engineering\PHREEQC\ROSS\examples\sensitivity_analyses\single_vs_dual_domain\2021-11-25-ROSSpy-red_sea-transport-pitzer-brine-all_time-LinPerm-15\input.pqi
  Output file: C:\Users\Andrew Freiburger\Dropbox\My PC (DESKTOP-M302P50)\Documents\UVic Civil Engineering\PHREEQC\ROSS\examples\sensitivity_analyses\single_vs_dual_domain\2021-11-25-ROSSpy-red_sea-transport-pitzer-brine-all_time-LinPerm-15\input.pqo
Database file: C:\Users\Andrew Freiburger\Dropbox\My PC (DESKTOP-M302P50)\Documents\UVic Civil Engineering\PHREEQC\ROSS\rosspy\databases\pitzer.dat

------------------
Reading data base.
------------------

	SOLUTION_MASTER_SPECIES
	SOLUTION_SPECIES
	PHASES
	PITZER
	EXCHANGE_MASTER_SPECIES
	EXCHANGE_SPECIES
	SURFACE_MASTER_SPECIES
	SURFACE_SPECIES
	END
------------------------------------
Reading input data for simulation 1.
------------------------------------

	DATABASE C:\Users\Andrew Freiburger\Dropbox\My PC (DESKTOP-M302P50)\Documents\UVic Civil Engineering\PHREEQC\ROSS\rosspy\databases\pitzer.dat
	TITLE	 None
	SOLUTION 0	red_sea
	temp 	 24.5 	 #average of Al-Taani et al., 2014 and Longinelli and Craig, 1967..
	pH 		 8.22 charge #None
	pe 		 0.2679 	   #Al-Taani et al., 2014 // 4.00 is the default (?) // 4.00 is the default (?)
	units 	 ppm
	Mn	0.000306	#Al-Taani et al., 2014 for the Northern Gulf of Aqaba
	Fe	0.006281	#Al-Taani et al., 2014 for the Northern Gulf of Aqaba
	B	1.344	#Al-Taani et al., 2014
	Cl	24756	#https://www.lenntech.com/composition-seawater.htm in the Red Sea, and Longinelli and Craig, 1967
	Na	16417.2	#https://www.lenntech.com/composition-seawater.htm in the Red Sea, and Longinelli and Craig, 1967 describes [Na]=15834
	S(6)	9500	#Longinelli and Craig, 1967 and Llyod, 1967
	Ca		774	#Abdel-Aal et al., 2015
	K		301	#Abdel-Aal et al., 2015
	Mg	1646	#Abdel-Aal et al., 2015
	Sr		8.3	#Bernat, Church, and Allegre, 1972 from the Mediterranean
	Ba	0.011	#Bernat, Church, and Allegre, 1972 from the Mediterranean
	Li	0.228	#Stoffyn-Egli and Mackenzie, 1984 for the Mediterranean Sea
	water 	17.378153556381264
	SOLUTION 1-25	Initial solution in the RO module
	temp 	 25
	units 	 ppm
	water 	17.378153556381264
	EQUILIBRIUM_PHASES 1-25	
	Anhydrite		0	0
	Aragonite		0	0
	Arcanite		0	0
	Artinite		0	0
	Barite			0	0
	Bischofite		0	0
	Bloedite		0	0
	Brucite		0	0
	Burkeite		0	0
	Calcite		0	0
	Carnallite		0	0
	Celestite		0	0
	Dolomite		0	0
	Epsomite		0	0
	Gaylussite		0	0
	Glaserite		0	0
	Glauberite		0	0
	Goergeyite		0	0
	Gypsum			0	0
	Halite			0	0
	Hexahydrite		0	0
	Huntite		0	0
	Kainite		0	0
	Kieserite		0	0
	Labile_S		0	0
	Leonhardite		0	0
	Leonite		0	0
	Magnesite		0	0
	MgCl2_2H2O		0	0
	MgCl2_4H2O		0	0
	Mirabilite		0	0
	Natron			0	0
	Nesquehonite		0	0
	Pentahydrite		0	0
	Pirssonite		0	0
	Polyhalite		0	0
	Portlandite		0	0
	Schoenite		0	0
	Sylvite		0	0
	Syngenite		0	0
	Thenardite		0	0
	Teepleite		0	0
	REACTION 14
		H2O -1
	 8.916777599410583
	REACTION 15
		H2O -1
	 8.835040471415986
	REACTION 16
		H2O -1
	 8.75330334342139
	REACTION 17
		H2O -1
	 8.671566215426791
	REACTION 18
		H2O -1
	 8.589829087432195
	REACTION 19
		H2O -1
	 8.508091959437598
	REACTION 20
		H2O -1
	 8.426354831443001
	REACTION 21
		H2O -1
	 8.344617703448403
	REACTION 22
		H2O -1
	 8.262880575453806
	REACTION 23
		H2O -1
	 8.18114344745921
	REACTION 24
		H2O -1
	 8.099406319464613
	REACTION 25
		H2O -1
	 8.017669191470016
	SELECTED_OUTPUT
	file			2021-11-25_red_sea_transport_pitzer_brine_0.txt
	reaction		true
	temperature		true
	totals			Mn Fe B Cl Na S(6) Ca K Mg Sr Ba Li Zn Ni Cu Cd Co Pb
	saturation_indices	Anhydrite Aragonite Arcanite Artinite Barite Bischofite Bloedite Brucite Burkeite Calcite Carnallite Celestite Dolomite Epsomite Gaylussite Glaserite Glauberite Goergeyite Gypsum Halite Hexahydrite Huntite Kainite Kieserite Labile_S Leonhardite Leonite Magnesite MgCl2_2H2O MgCl2_4H2O Mirabilite Natron Nesquehonite Pentahydrite Pirssonite Polyhalite Portlandite Schoenite Sylvite Syngenite Thenardite Teepleite
	equilibrium_phases	Anhydrite Aragonite Arcanite Artinite Barite Bischofite Bloedite Brucite Burkeite Calcite Carnallite Celestite Dolomite Epsomite Gaylussite Glaserite Glauberite Goergeyite Gypsum Halite Hexahydrite Huntite Kainite Kieserite Labile_S Leonhardite Leonite Magnesite MgCl2_2H2O MgCl2_4H2O Mirabilite Natron Nesquehonite Pentahydrite Pirssonite Polyhalite Portlandite Schoenite Sylvite Syngenite Thenardite Teepleite
	ph			true
	time			true
	distance		true
	simulation		true
	high_precision	true
	alkalinity	true
	solution
	charge_balance	true
	ionic_strength	true
	step
	water
	TRANSPORT
	cells			12
	shifts			20
	lengths		0.08466666666666667
	time_step		3.946329703005324	# this satisfies the Courant condition with a feed velocity of 2.575E-1 m/s
	initial_time		0
	boundary_conditions	constant	flux 	 # Dirichlet and Cachy boundary conditions
	stagnant		1		1e-05			0		0 	 # dual domain
	punch_cells		25
	punch_frequency	1
WARNING: Cell-lengths were read for 1 cells. Last value is used till cell 12.
WARNING: No dispersivities were read; disp = 0 assumed.
-----
TITLE
-----

	 None

WARNING: Did not find master species, Zn.
WARNING: Did not find master species, Ni.
WARNING: Did not find master species, Cu.
WARNING: Did not find master species, Cd.
WARNING: Did not find master species, Co.
WARNING: Did not find master species, Pb.
-------------------------------------------
Beginning of initial solution calculations.
-------------------------------------------

Initial solution 0.	red_sea

-----------------------------Solution composition------------------------------

	Elements           Molality       Moles

	B                 1.313e-04   2.283e-03
	Ba                8.462e-08   1.471e-06
	Ca                2.040e-02   3.545e-01
	Cl                7.377e-01   1.282e+01
	Fe                1.188e-07   2.065e-06
	K                 8.133e-03   1.413e-01
	Li                3.470e-05   6.030e-04
	Mg                7.154e-02   1.243e+00
	Mn                5.884e-09   1.023e-07
	Na                7.544e-01   1.311e+01
	S(6)              1.045e-01   1.816e+00
	Sr                1.001e-04   1.739e-03

----------------------------Description of solution----------------------------

                                       pH  =   8.178      Charge balance
                                       pe  =   0.268    
      Specific Conductance (µS/cm,  25°C)  = 71102
                          Density (g/cm³)  =   1.03876
                               Volume (L)  =  17.67371
                        Activity of water  =   0.973
                 Ionic strength (mol/kgw)  =   1.143e+00
                       Mass of water (kg)  =   1.738e+01
                 Total alkalinity (eq/kg)  =   3.800e-05
                         Temperature (°C)  =  24.50
                  Electrical balance (eq)  =   3.307e-15
 Percent error, 100*(Cat-|An|)/(Cat+|An|)  =   0.00
                               Iterations  =  18
                         Gamma iterations  =   5
                      Osmotic coefficient  =   0.88776
                         Density of water  =   0.99717
                                  Total H  = 1.929199e+03
                                  Total O  = 9.718652e+02

----------------------------Distribution of species----------------------------

                                                    MacInnes  MacInnes
                                MacInnes       Log       Log       Log    mole V
   Species          Molality    Activity  Molality  Activity     Gamma   cm³/mol

   OH-             3.022e-06   1.427e-06    -5.520    -5.845    -0.326     -1.91
   H+              8.225e-09   6.643e-09    -8.085    -8.178    -0.093      0.00
   H2O             5.551e+01   9.732e-01     1.744    -0.012     0.000     18.07
B             1.313e-04
   B(OH)3          1.004e-04   9.968e-05    -3.998    -4.001    -0.003     39.19
   B(OH)4-         2.334e-05   8.423e-06    -4.632    -5.075    -0.443     (0)  
   MgB(OH)4+       5.233e-06   3.374e-06    -5.281    -5.472    -0.191     (0)  
   CaB(OH)4+       2.396e-06   1.457e-06    -5.620    -5.837    -0.216     (0)  
   B3O3(OH)4-      1.517e-11   4.667e-12   -10.819   -11.331    -0.512     (0)  
   B4O5(OH)4-2     6.827e-15   1.783e-16   -14.166   -15.749    -1.583     (0)  
Ba            8.462e-08
   Ba+2            8.462e-08   1.220e-08    -7.073    -7.914    -0.841    -10.49
Ca            2.040e-02
   Ca+2            2.040e-02   3.871e-03    -1.690    -2.412    -0.722    -16.40
   CaB(OH)4+       2.396e-06   1.457e-06    -5.620    -5.837    -0.216     (0)  
Cl            7.377e-01
   Cl-             7.377e-01   4.402e-01    -0.132    -0.356    -0.224     18.99
Fe            1.188e-07
   Fe+2            1.188e-07   2.142e-08    -6.925    -7.669    -0.744    -20.38
K             8.133e-03
   K+              8.133e-03   4.989e-03    -2.090    -2.302    -0.212      9.90
Li            3.470e-05
   Li+             3.470e-05   2.769e-05    -4.460    -4.558    -0.098     -0.51
Mg            7.154e-02
   Mg+2            7.153e-02   1.599e-02    -1.145    -1.796    -0.651    -20.08
   MgB(OH)4+       5.233e-06   3.374e-06    -5.281    -5.472    -0.191     (0)  
   MgOH+           4.030e-06   3.480e-06    -5.395    -5.458    -0.064     (0)  
Mn            5.884e-09
   Mn+2            5.884e-09   1.033e-09    -8.230    -8.986    -0.755    -15.83
Na            7.544e-01
   Na+             7.544e-01   5.171e-01    -0.122    -0.286    -0.164     -0.25
S(6)          1.045e-01
   SO4-2           1.045e-01   6.444e-03    -0.981    -2.191    -1.210     19.54
   HSO4-           6.655e-09   4.021e-09    -8.177    -8.396    -0.219     41.12
Sr            1.001e-04
   Sr+2            1.001e-04   1.852e-05    -4.000    -4.732    -0.733    -16.24

------------------------------Saturation indices-------------------------------

  Phase               SI** log IAP   log K(297 K,   1 atm)

  Anhydrite        -0.36     -4.60   -4.24  CaSO4
  Arcanite         -4.91     -6.79   -1.89  K2SO4
  Barite           -0.26    -10.10   -9.85  BaSO4
  Bischofite       -7.18     -2.58    4.60  MgCl2:6H2O
  Bloedite         -4.45     -6.80   -2.35  Na2Mg(SO4)2:4H2O
  Borax           -12.75     -0.28   12.46  Na2(B4O5(OH)4):8H2O
  Boric_acid,s     -3.97     -4.00   -0.03  B(OH)3
  Brucite          -2.60    -13.49  -10.89  Mg(OH)2
  Carnallite       -9.66     -5.24    4.42  KMgCl3:6H2O
  Celestite        -0.27     -6.92   -6.66  SrSO4
  Epsomite         -2.22     -4.07   -1.85  MgSO4:7H2O
  Glaserite        -7.76    -11.57   -3.81  NaK3(SO4)2
  Glauberite       -2.02     -7.37   -5.35  Na2Ca(SO4)2
  Goergeyite       -0.43    -29.82  -29.39  K2Ca5(SO4)6H2O
  Gypsum           -0.03     -4.63   -4.60  CaSO4:2H2O
  H2O(g)           -1.53     -0.01    1.52  H2O
  Halite           -2.22     -0.64    1.58  NaCl
  Hexahydrite      -2.49     -4.06   -1.57  MgSO4:6H2O
  K2B4O7:4H2O     -18.15     -4.24   13.91  K2B4O7:4H2O
  Kainite          -6.49     -6.68   -0.19  KMgClSO4:3H2O
  KB5O8:4H2O      -18.77    -14.10    4.67  KB5O8:4H2O
  Kieserite        -3.74     -4.00   -0.26  MgSO4:H2O
  Labile_S         -4.48    -10.15   -5.67  Na4Ca(SO4)3:2H2O
  Leonhardite      -3.15     -4.03   -0.89  MgSO4:4H2O
  Leonite          -6.85    -10.83   -3.98  K2Mg(SO4)2:4H2O
  MgCl2_2H2O      -17.13     -2.53   14.60  MgCl2:2H2O
  MgCl2_4H2O       -9.54     -2.56    6.99  MgCl2:4H2O
  Mirabilite       -1.62     -2.88   -1.26  Na2SO4:10H2O
  Misenite        -72.01    -82.82  -10.81  K8H6(SO4)7
  NaB5O8:5H2O     -17.99    -12.09    5.89  NaB5O8:5H2O
  NaBO2:4H2O       -5.71      3.85    9.57  NaBO2:4H2O
  Pentahydrite     -2.76     -4.05   -1.28  MgSO4:5H2O
  Polyhalite       -6.27    -20.01  -13.74  K2MgCa2(SO4)4:2H2O
  Portlandite      -8.91    -14.10   -5.19  Ca(OH)2
  Schoenite        -6.52    -10.85   -4.33  K2Mg(SO4)2:6H2O
  Sylvite          -3.55     -2.66    0.90  KCl
  Syngenite        -4.99    -11.41   -6.42  K2Ca(SO4)2:H2O
  Teepleite        -7.60      3.24   10.84  Na2B(OH)4Cl
  Thenardite       -2.47     -2.76   -0.30  Na2SO4

**For a gas, SI = log10(fugacity). Fugacity = pressure * phi / 1 atm.
  For ideal gases, phi = 1.

Initial solution 1.	Initial solution in the RO module

-----------------------------Solution composition------------------------------

	Elements           Molality       Moles

	Pure water     

----------------------------Description of solution----------------------------

                                       pH  =   7.000    
                                       pe  =   4.000    
      Specific Conductance (µS/cm,  25°C)  = 0
                          Density (g/cm³)  =   0.99704
                               Volume (L)  =  17.42969
                        Activity of water  =   1.000
                 Ionic strength (mol/kgw)  =   1.006e-07
                       Mass of water (kg)  =   1.738e+01
                 Total alkalinity (eq/kg)  =   1.216e-09
                         Temperature (°C)  =  25.00
                  Electrical balance (eq)  =  -2.114e-08
 Percent error, 100*(Cat-|An|)/(Cat+|An|)  =  -0.60
                               Iterations  =   3 (21 overall)
                         Gamma iterations  =   2
                      Osmotic coefficient  =   0.99988
                         Density of water  =   0.99704
                                  Total H  = 1.929191e+03
                                  Total O  = 9.645956e+02

----------------------------Distribution of species----------------------------

                                                    MacInnes  MacInnes
                                MacInnes       Log       Log       Log    mole V
   Species          Molality    Activity  Molality  Activity     Gamma   cm³/mol

   OH-             1.013e-07   1.012e-07    -6.995    -6.995    -0.000     -4.14
   H+              1.000e-07   1.000e-07    -7.000    -7.000    -0.000      0.00
   H2O             5.551e+01   1.000e+00     1.744    -0.000     0.000     18.07

------------------------------Saturation indices-------------------------------

  Phase               SI** log IAP   log K(298 K,   1 atm)

  H2O(g)           -1.50     -0.00    1.50  H2O

**For a gas, SI = log10(fugacity). Fugacity = pressure * phi / 1 atm.
  For ideal gases, phi = 1.

-----------------------------------------
Beginning of batch-reaction calculations.
-----------------------------------------

Reaction step 1.

WARNING: Element C is contained in Aragonite (which has 0.0 mass),	
but is not in solution or other phases.
WARNING: Element C is contained in Artinite (which has 0.0 mass),	
but is not in solution or other phases.
WARNING: Element C is contained in Burkeite (which has 0.0 mass),	
but is not in solution or other phases.
WARNING: Element C is contained in Calcite (which has 0.0 mass),	
but is not in solution or other phases.
WARNING: Element C is contained in Dolomite (which has 0.0 mass),	
but is not in solution or other phases.
WARNING: Element C is contained in Gaylussite (which has 0.0 mass),	
but is not in solution or other phases.
WARNING: Element C is contained in Huntite (which has 0.0 mass),	
but is not in solution or other phases.
WARNING: Element C is contained in Magnesite (which has 0.0 mass),	
but is not in solution or other phases.
WARNING: Element C is contained in Natron (which has 0.0 mass),	
but is not in solution or other phases.
WARNING: Element C is contained in Nesquehonite (which has 0.0 mass),	
but is not in solution or other phases.
WARNING: Element C is contained in Pirssonite (which has 0.0 mass),	
but is not in solution or other phases.
Using solution 0.	red_sea
Using pure phase assemblage 1.	
Using reaction 14.	

Reaction 14.	

	  8.917e+00 moles of the following reaction have been added:

	                 Relative
	Reactant            moles

	H2O                 -1.00000

	                 Relative
	Element             moles
	H                   -2.00000
	O                   -1.00000

-------------------------------Phase assemblage--------------------------------

                                                      Moles in assemblage
Phase               SI  log IAP  log K(T, P)   Initial       Final       Delta

Anhydrite        -0.35    -4.60     -4.24    0.000e+00           0   0.000e+00
Aragonite            Element not present.    0.000e+00           0   0.000e+00
Arcanite         -4.90    -6.79     -1.89    0.000e+00           0   0.000e+00
Artinite             Element not present.    0.000e+00           0   0.000e+00
Barite           -0.25   -10.10     -9.85    0.000e+00           0   0.000e+00
Bischofite       -7.17    -2.57      4.60    0.000e+00           0   0.000e+00
Bloedite         -4.44    -6.78     -2.35    0.000e+00           0   0.000e+00
Brucite          -2.60   -13.49    -10.89    0.000e+00           0   0.000e+00
Burkeite             Element not present.    0.000e+00           0   0.000e+00
Calcite              Element not present.    0.000e+00           0   0.000e+00
Carnallite       -9.64    -5.22      4.42    0.000e+00           0   0.000e+00
Celestite        -0.26    -6.92     -6.66    0.000e+00           0   0.000e+00
Dolomite             Element not present.    0.000e+00           0   0.000e+00
Epsomite         -2.21    -4.07     -1.85    0.000e+00           0   0.000e+00
Gaylussite           Element not present.    0.000e+00           0   0.000e+00
Glaserite        -7.75   -11.56     -3.81    0.000e+00           0   0.000e+00
Glauberite       -2.01    -7.35     -5.35    0.000e+00           0   0.000e+00
Goergeyite       -0.40   -29.79    -29.39    0.000e+00           0   0.000e+00
Gypsum           -0.02    -4.62     -4.60    0.000e+00           0   0.000e+00
Halite           -2.22    -0.64      1.58    0.000e+00           0   0.000e+00
Hexahydrite      -2.49    -4.05     -1.57    0.000e+00           0   0.000e+00
Huntite              Element not present.    0.000e+00           0   0.000e+00
Kainite          -6.48    -6.67     -0.19    0.000e+00           0   0.000e+00
Kieserite        -3.74    -3.99     -0.26    0.000e+00           0   0.000e+00
Labile_S         -4.46   -10.13     -5.67    0.000e+00           0   0.000e+00
Leonhardite      -3.14    -4.03     -0.89    0.000e+00           0   0.000e+00
Leonite          -6.84   -10.82     -3.98    0.000e+00           0   0.000e+00
Magnesite            Element not present.    0.000e+00           0   0.000e+00
MgCl2_2H2O      -17.12    -2.52     14.60    0.000e+00           0   0.000e+00
MgCl2_4H2O       -9.53    -2.54      6.99    0.000e+00           0   0.000e+00
Mirabilite       -1.61    -2.87     -1.26    0.000e+00           0   0.000e+00
Natron               Element not present.    0.000e+00           0   0.000e+00
Nesquehonite         Element not present.    0.000e+00           0   0.000e+00
Pentahydrite     -2.76    -4.04     -1.28    0.000e+00           0   0.000e+00
Pirssonite           Element not present.    0.000e+00           0   0.000e+00
Polyhalite       -6.25   -19.99    -13.74    0.000e+00           0   0.000e+00
Portlandite      -8.91   -14.10     -5.19    0.000e+00           0   0.000e+00
Schoenite        -6.51   -10.84     -4.33    0.000e+00           0   0.000e+00
Sylvite          -3.55    -2.65      0.90    0.000e+00           0   0.000e+00
Syngenite        -4.98   -11.40     -6.42    0.000e+00           0   0.000e+00
Teepleite        -7.59     3.25     10.84    0.000e+00           0   0.000e+00
Thenardite       -2.46    -2.76     -0.30    0.000e+00           0   0.000e+00

-----------------------------Solution composition------------------------------

	Elements           Molality       Moles

	B                 1.326e-04   2.283e-03
	Ba                8.541e-08   1.471e-06
	Ca                2.059e-02   3.545e-01
	Cl                7.446e-01   1.282e+01
	Fe                1.199e-07   2.065e-06
	K                 8.209e-03   1.413e-01
	Li                3.503e-05   6.030e-04
	Mg                7.221e-02   1.243e+00
	Mn                5.939e-09   1.023e-07
	Na                7.614e-01   1.311e+01
	S                 1.054e-01   1.816e+00
	Sr                1.010e-04   1.739e-03

----------------------------Description of solution----------------------------

                                       pH  =   8.176      Charge balance
                                       pe  =   0.268      Adjusted to redox equilibrium
      Specific Conductance (µS/cm,  25°C)  = 71615
                          Density (g/cm³)  =   1.03913
                               Volume (L)  =  17.51279
                        Activity of water  =   0.973
                 Ionic strength (mol/kgw)  =   1.154e+00
                       Mass of water (kg)  =   1.722e+01
                 Total alkalinity (eq/kg)  =   3.836e-05
                         Temperature (°C)  =  24.50
                  Electrical balance (eq)  =  -1.657e-12
 Percent error, 100*(Cat-|An|)/(Cat+|An|)  =  -0.00
                               Iterations  =   8
                         Gamma iterations  =   3
                      Osmotic coefficient  =   0.88804
                         Density of water  =   0.99717
                                  Total H  = 1.911365e+03
                                  Total O  = 9.629484e+02

----------------------------Distribution of species----------------------------

                                                    MacInnes  MacInnes
                                MacInnes       Log       Log       Log    mole V
   Species          Molality    Activity  Molality  Activity     Gamma   cm³/mol

   OH-             3.017e-06   1.421e-06    -5.520    -5.847    -0.327     -1.89
   H+              8.241e-09   6.668e-09    -8.084    -8.176    -0.092      0.00
   H2O             5.551e+01   9.730e-01     1.744    -0.012     0.000     18.07
B             1.326e-04
   B(OH)3          1.013e-04   1.006e-04    -3.995    -3.998    -0.003     39.19
   B(OH)4-         2.356e-05   8.463e-06    -4.628    -5.072    -0.445     (0)  
   MgB(OH)4+       5.311e-06   3.426e-06    -5.275    -5.465    -0.190     (0)  
   CaB(OH)4+       2.431e-06   1.478e-06    -5.614    -5.830    -0.216     (0)  
   B3O3(OH)4-      1.559e-11   4.777e-12   -10.807   -11.321    -0.514     (0)  
   B4O5(OH)4-2     7.115e-15   1.834e-16   -14.148   -15.737    -1.589     (0)  
Ba            8.541e-08
   Ba+2            8.541e-08   1.230e-08    -7.069    -7.910    -0.842    -10.48
Ca            2.059e-02
   Ca+2            2.059e-02   3.909e-03    -1.686    -2.408    -0.722    -16.39
   CaB(OH)4+       2.431e-06   1.478e-06    -5.614    -5.830    -0.216     (0)  
Cl            7.446e-01
   Cl-             7.446e-01   4.439e-01    -0.128    -0.353    -0.225     18.99
Fe            1.199e-07
   Fe+2            1.199e-07   2.162e-08    -6.921    -7.665    -0.744    -20.38
K             8.209e-03
   K+              8.209e-03   5.031e-03    -2.086    -2.298    -0.213      9.91
Li            3.503e-05
   Li+             3.503e-05   2.799e-05    -4.456    -4.553    -0.097     -0.50
Mg            7.221e-02
   Mg+2            7.220e-02   1.615e-02    -1.141    -1.792    -0.650    -20.07
   MgB(OH)4+       5.311e-06   3.426e-06    -5.275    -5.465    -0.190     (0)  
   MgOH+           4.058e-06   3.503e-06    -5.392    -5.456    -0.064     (0)  
Mn            5.939e-09
   Mn+2            5.939e-09   1.042e-09    -8.226    -8.982    -0.756    -15.82
Na            7.614e-01
   Na+             7.614e-01   5.220e-01    -0.118    -0.282    -0.164     -0.25
S(6)          1.054e-01
   SO4-2           1.054e-01   6.450e-03    -0.977    -2.190    -1.213     19.57
   HSO4-           6.695e-09   4.041e-09    -8.174    -8.394    -0.219     41.12
Sr            1.010e-04
   Sr+2            1.010e-04   1.869e-05    -3.996    -4.728    -0.733    -16.23

------------------------------Saturation indices-------------------------------

  Phase               SI** log IAP   log K(297 K,   1 atm)

  Anhydrite        -0.35     -4.60   -4.24  CaSO4
  Arcanite         -4.90     -6.79   -1.89  K2SO4
  Barite           -0.25    -10.10   -9.85  BaSO4
  Bischofite       -7.17     -2.57    4.60  MgCl2:6H2O
  Bloedite         -4.44     -6.78   -2.35  Na2Mg(SO4)2:4H2O
  Borax           -12.73     -0.26   12.46  Na2(B4O5(OH)4):8H2O
  Boric_acid,s     -3.97     -4.00   -0.03  B(OH)3
  Brucite          -2.60    -13.49  -10.89  Mg(OH)2
  Carnallite       -9.64     -5.22    4.42  KMgCl3:6H2O
  Celestite        -0.26     -6.92   -6.66  SrSO4
  Epsomite         -2.21     -4.07   -1.85  MgSO4:7H2O
  Glaserite        -7.75    -11.56   -3.81  NaK3(SO4)2
  Glauberite       -2.01     -7.35   -5.35  Na2Ca(SO4)2
  Goergeyite       -0.40    -29.79  -29.39  K2Ca5(SO4)6H2O
  Gypsum           -0.02     -4.62   -4.60  CaSO4:2H2O
  H2O(g)           -1.53     -0.01    1.52  H2O
  Halite           -2.22     -0.64    1.58  NaCl
  Hexahydrite      -2.49     -4.05   -1.57  MgSO4:6H2O
  K2B4O7:4H2O     -18.13     -4.22   13.91  K2B4O7:4H2O
  Kainite          -6.48     -6.67   -0.19  KMgClSO4:3H2O
  KB5O8:4H2O      -18.75    -14.07    4.67  KB5O8:4H2O
  Kieserite        -3.74     -3.99   -0.26  MgSO4:H2O
  Labile_S         -4.46    -10.13   -5.67  Na4Ca(SO4)3:2H2O
  Leonhardite      -3.14     -4.03   -0.89  MgSO4:4H2O
  Leonite          -6.84    -10.82   -3.98  K2Mg(SO4)2:4H2O
  MgCl2_2H2O      -17.12     -2.52   14.60  MgCl2:2H2O
  MgCl2_4H2O       -9.53     -2.54    6.99  MgCl2:4H2O
  Mirabilite       -1.61     -2.87   -1.26  Na2SO4:10H2O
  Misenite        -71.97    -82.78  -10.81  K8H6(SO4)7
  NaB5O8:5H2O     -17.97    -12.07    5.89  NaB5O8:5H2O
  NaBO2:4H2O       -5.71      3.86    9.57  NaBO2:4H2O
  Pentahydrite     -2.76     -4.04   -1.28  MgSO4:5H2O
  Polyhalite       -6.25    -19.99  -13.74  K2MgCa2(SO4)4:2H2O
  Portlandite      -8.91    -14.10   -5.19  Ca(OH)2
  Schoenite        -6.51    -10.84   -4.33  K2Mg(SO4)2:6H2O
  Sylvite          -3.55     -2.65    0.90  KCl
  Syngenite        -4.98    -11.40   -6.42  K2Ca(SO4)2:H2O
  Teepleite        -7.59      3.25   10.84  Na2B(OH)4Cl
  Thenardite       -2.46     -2.76   -0.30  Na2SO4

**For a gas, SI = log10(fugacity). Fugacity = pressure * phi / 1 atm.
  For ideal gases, phi = 1.

------------------------------------
Beginning of transport calculations.
------------------------------------

-------------------------------
Equilibrating initial solutions
-------------------------------

Using solution 0.	red_sea

-----------------------------Solution composition------------------------------

	Elements           Molality       Moles

	B                 1.313e-04   2.283e-03
	Ba                8.462e-08   1.471e-06
	Ca                2.040e-02   3.545e-01
	Cl                7.377e-01   1.282e+01
	Fe                1.188e-07   2.065e-06
	K                 8.133e-03   1.413e-01
	Li                3.470e-05   6.030e-04
	Mg                7.154e-02   1.243e+00
	Mn                5.884e-09   1.023e-07
	Na                7.544e-01   1.311e+01
	S                 1.045e-01   1.816e+00
	Sr                1.001e-04   1.739e-03

----------------------------Description of solution----------------------------

                                       pH  =   8.178      Charge balance
                                       pe  =   0.268      Adjusted to redox equilibrium
      Specific Conductance (µS/cm,  25°C)  = 71102
                          Density (g/cm³)  =   1.03876
                               Volume (L)  =  17.67371
                        Activity of water  =   0.973
                 Ionic strength (mol/kgw)  =   1.143e+00
                       Mass of water (kg)  =   1.738e+01
                 Total alkalinity (eq/kg)  =   3.800e-05
                         Temperature (°C)  =  24.50
                  Electrical balance (eq)  =   5.530e-15
 Percent error, 100*(Cat-|An|)/(Cat+|An|)  =   0.00
                               Iterations  =   3 (11 overall)
                         Gamma iterations  =   2
                      Osmotic coefficient  =   0.88776
                         Density of water  =   0.99717
                                  Total H  = 1.929199e+03
                                  Total O  = 9.718652e+02

----------------------------Distribution of species----------------------------

                                                    MacInnes  MacInnes
                                MacInnes       Log       Log       Log    mole V
   Species          Molality    Activity  Molality  Activity     Gamma   cm³/mol

   OH-             3.022e-06   1.427e-06    -5.520    -5.845    -0.326     -1.91
   H+              8.225e-09   6.643e-09    -8.085    -8.178    -0.093      0.00
   H2O             5.551e+01   9.732e-01     1.744    -0.012     0.000     18.07
B             1.313e-04
   B(OH)3          1.004e-04   9.968e-05    -3.998    -4.001    -0.003     39.19
   B(OH)4-         2.334e-05   8.423e-06    -4.632    -5.075    -0.443     (0)  
   MgB(OH)4+       5.233e-06   3.374e-06    -5.281    -5.472    -0.191     (0)  
   CaB(OH)4+       2.396e-06   1.457e-06    -5.620    -5.837    -0.216     (0)  
   B3O3(OH)4-      1.517e-11   4.667e-12   -10.819   -11.331    -0.512     (0)  
   B4O5(OH)4-2     6.827e-15   1.783e-16   -14.166   -15.749    -1.583     (0)  
Ba            8.462e-08
   Ba+2            8.462e-08   1.220e-08    -7.073    -7.914    -0.841    -10.49
Ca            2.040e-02
   Ca+2            2.040e-02   3.871e-03    -1.690    -2.412    -0.722    -16.40
   CaB(OH)4+       2.396e-06   1.457e-06    -5.620    -5.837    -0.216     (0)  
Cl            7.377e-01
   Cl-             7.377e-01   4.402e-01    -0.132    -0.356    -0.224     18.99
Fe            1.188e-07
   Fe+2            1.188e-07   2.142e-08    -6.925    -7.669    -0.744    -20.38
K             8.133e-03
   K+              8.133e-03   4.989e-03    -2.090    -2.302    -0.212      9.90
Li            3.470e-05
   Li+             3.470e-05   2.769e-05    -4.460    -4.558    -0.098     -0.51
Mg            7.154e-02
   Mg+2            7.153e-02   1.599e-02    -1.145    -1.796    -0.651    -20.08
   MgB(OH)4+       5.233e-06   3.374e-06    -5.281    -5.472    -0.191     (0)  
   MgOH+           4.030e-06   3.480e-06    -5.395    -5.458    -0.064     (0)  
Mn            5.884e-09
   Mn+2            5.884e-09   1.033e-09    -8.230    -8.986    -0.755    -15.83
Na            7.544e-01
   Na+             7.544e-01   5.171e-01    -0.122    -0.286    -0.164     -0.25
S(6)          1.045e-01
   SO4-2           1.045e-01   6.444e-03    -0.981    -2.191    -1.210     19.54
   HSO4-           6.655e-09   4.021e-09    -8.177    -8.396    -0.219     41.12
Sr            1.001e-04
   Sr+2            1.001e-04   1.852e-05    -4.000    -4.732    -0.733    -16.24

------------------------------Saturation indices-------------------------------

  Phase               SI** log IAP   log K(297 K,   1 atm)

  Anhydrite        -0.36     -4.60   -4.24  CaSO4
  Arcanite         -4.91     -6.79   -1.89  K2SO4
  Barite           -0.26    -10.10   -9.85  BaSO4
  Bischofite       -7.18     -2.58    4.60  MgCl2:6H2O
  Bloedite         -4.45     -6.80   -2.35  Na2Mg(SO4)2:4H2O
  Borax           -12.75     -0.28   12.46  Na2(B4O5(OH)4):8H2O
  Boric_acid,s     -3.97     -4.00   -0.03  B(OH)3
  Brucite          -2.60    -13.49  -10.89  Mg(OH)2
  Carnallite       -9.66     -5.24    4.42  KMgCl3:6H2O
  Celestite        -0.27     -6.92   -6.66  SrSO4
  Epsomite         -2.22     -4.07   -1.85  MgSO4:7H2O
  Glaserite        -7.76    -11.57   -3.81  NaK3(SO4)2
  Glauberite       -2.02     -7.37   -5.35  Na2Ca(SO4)2
  Goergeyite       -0.43    -29.82  -29.39  K2Ca5(SO4)6H2O
  Gypsum           -0.03     -4.63   -4.60  CaSO4:2H2O
  H2O(g)           -1.53     -0.01    1.52  H2O
  Halite           -2.22     -0.64    1.58  NaCl
  Hexahydrite      -2.49     -4.06   -1.57  MgSO4:6H2O
  K2B4O7:4H2O     -18.15     -4.24   13.91  K2B4O7:4H2O
  Kainite          -6.49     -6.68   -0.19  KMgClSO4:3H2O
  KB5O8:4H2O      -18.77    -14.10    4.67  KB5O8:4H2O
  Kieserite        -3.74     -4.00   -0.26  MgSO4:H2O
  Labile_S         -4.48    -10.15   -5.67  Na4Ca(SO4)3:2H2O
  Leonhardite      -3.15     -4.03   -0.89  MgSO4:4H2O
  Leonite          -6.85    -10.83   -3.98  K2Mg(SO4)2:4H2O
  MgCl2_2H2O      -17.13     -2.53   14.60  MgCl2:2H2O
  MgCl2_4H2O       -9.54     -2.56    6.99  MgCl2:4H2O
  Mirabilite       -1.62     -2.88   -1.26  Na2SO4:10H2O
  Misenite        -72.01    -82.82  -10.81  K8H6(SO4)7
  NaB5O8:5H2O     -17.99    -12.09    5.89  NaB5O8:5H2O
  NaBO2:4H2O       -5.71      3.85    9.57  NaBO2:4H2O
  Pentahydrite     -2.76     -4.05   -1.28  MgSO4:5H2O
  Polyhalite       -6.27    -20.01  -13.74  K2MgCa2(SO4)4:2H2O
  Portlandite      -8.91    -14.10   -5.19  Ca(OH)2
  Schoenite        -6.52    -10.85   -4.33  K2Mg(SO4)2:6H2O
  Sylvite          -3.55     -2.66    0.90  KCl
  Syngenite        -4.99    -11.41   -6.42  K2Ca(SO4)2:H2O
  Teepleite        -7.60      3.24   10.84  Na2B(OH)4Cl
  Thenardite       -2.47     -2.76   -0.30  Na2SO4

**For a gas, SI = log10(fugacity). Fugacity = pressure * phi / 1 atm.
  For ideal gases, phi = 1.

Using solution 1.	Initial solution in the RO module
Using pure phase assemblage 1.	

-------------------------------Phase assemblage--------------------------------

                                                      Moles in assemblage
Phase               SI  log IAP  log K(T, P)   Initial       Final       Delta

Anhydrite            Element not present.    0.000e+00               0.000e+00
Aragonite            Element not present.    0.000e+00               0.000e+00
Arcanite             Element not present.    0.000e+00               0.000e+00
Artinite             Element not present.    0.000e+00               0.000e+00
Barite               Element not present.    0.000e+00               0.000e+00
Bischofite           Element not present.    0.000e+00               0.000e+00
Bloedite             Element not present.    0.000e+00               0.000e+00
Brucite              Element not present.    0.000e+00               0.000e+00
Burkeite             Element not present.    0.000e+00               0.000e+00
Calcite              Element not present.    0.000e+00               0.000e+00
Carnallite           Element not present.    0.000e+00               0.000e+00
Celestite            Element not present.    0.000e+00               0.000e+00
Dolomite             Element not present.    0.000e+00               0.000e+00
Epsomite             Element not present.    0.000e+00               0.000e+00
Gaylussite           Element not present.    0.000e+00               0.000e+00
Glaserite            Element not present.    0.000e+00               0.000e+00
Glauberite           Element not present.    0.000e+00               0.000e+00
Goergeyite           Element not present.    0.000e+00               0.000e+00
Gypsum               Element not present.    0.000e+00               0.000e+00
Halite               Element not present.    0.000e+00               0.000e+00
Hexahydrite          Element not present.    0.000e+00               0.000e+00
Huntite              Element not present.    0.000e+00               0.000e+00
Kainite              Element not present.    0.000e+00               0.000e+00
Kieserite            Element not present.    0.000e+00               0.000e+00
Labile_S             Element not present.    0.000e+00               0.000e+00
Leonhardite          Element not present.    0.000e+00               0.000e+00
Leonite              Element not present.    0.000e+00               0.000e+00
Magnesite            Element not present.    0.000e+00               0.000e+00
MgCl2_2H2O           Element not present.    0.000e+00               0.000e+00
MgCl2_4H2O           Element not present.    0.000e+00               0.000e+00
Mirabilite           Element not present.    0.000e+00               0.000e+00
Natron               Element not present.    0.000e+00               0.000e+00
Nesquehonite         Element not present.    0.000e+00               0.000e+00
Pentahydrite         Element not present.    0.000e+00               0.000e+00
Pirssonite           Element not present.    0.000e+00               0.000e+00
Polyhalite           Element not present.    0.000e+00               0.000e+00
Portlandite          Element not present.    0.000e+00               0.000e+00
Schoenite            Element not present.    0.000e+00               0.000e+00
Sylvite              Element not present.    0.000e+00               0.000e+00
Syngenite            Element not present.    0.000e+00               0.000e+00
Teepleite            Element not present.    0.000e+00               0.000e+00
Thenardite           Element not present.    0.000e+00               0.000e+00

-----------------------------Solution composition------------------------------

	Elements           Molality       Moles

	Pure water     

----------------------------Description of solution----------------------------

                                       pH  =   7.000      Charge balance
                                       pe  =   4.000      Adjusted to redox equilibrium
      Specific Conductance (µS/cm,  25°C)  = 0
                          Density (g/cm³)  =   0.99704
                               Volume (L)  =  17.42969
                        Activity of water  =   1.000
                 Ionic strength (mol/kgw)  =   1.006e-07
                       Mass of water (kg)  =   1.738e+01
                 Total alkalinity (eq/kg)  =   1.216e-09
                         Temperature (°C)  =  25.00
                  Electrical balance (eq)  =  -2.114e-08
 Percent error, 100*(Cat-|An|)/(Cat+|An|)  =  -0.60
                               Iterations  =   1 (12 overall)
                         Gamma iterations  =   1
                      Osmotic coefficient  =   0.99988
                         Density of water  =   0.99704
                                  Total H  = 1.929191e+03
                                  Total O  = 9.645956e+02

----------------------------Distribution of species----------------------------

                                                    MacInnes  MacInnes
                                MacInnes       Log       Log       Log    mole V
   Species          Molality    Activity  Molality  Activity     Gamma   cm³/mol

   OH-             1.013e-07   1.012e-07    -6.995    -6.995    -0.000     -4.14
   H+              1.000e-07   1.000e-07    -7.000    -7.000    -0.000      0.00
   H2O             5.551e+01   1.000e+00     1.744    -0.000     0.000     18.07

------------------------------Saturation indices-------------------------------

  Phase               SI** log IAP   log K(298 K,   1 atm)

  H2O(g)           -1.50     -0.00    1.50  H2O

**For a gas, SI = log10(fugacity). Fugacity = pressure * phi / 1 atm.
  For ideal gases, phi = 1.

Using solution 2.	Initial solution in the RO module
Using pure phase assemblage 2.	

-------------------------------Phase assemblage--------------------------------

                                                      Moles in assemblage
Phase               SI  log IAP  log K(T, P)   Initial       Final       Delta

Anhydrite            Element not present.    0.000e+00               0.000e+00
Aragonite            Element not present.    0.000e+00               0.000e+00
Arcanite             Element not present.    0.000e+00               0.000e+00
Artinite             Element not present.    0.000e+00               0.000e+00
Barite               Element not present.    0.000e+00               0.000e+00
Bischofite           Element not present.    0.000e+00               0.000e+00
Bloedite             Element not present.    0.000e+00               0.000e+00
Brucite              Element not present.    0.000e+00               0.000e+00
Burkeite             Element not present.    0.000e+00               0.000e+00
Calcite              Element not present.    0.000e+00               0.000e+00
Carnallite           Element not present.    0.000e+00               0.000e+00
Celestite            Element not present.    0.000e+00               0.000e+00
Dolomite             Element not present.    0.000e+00               0.000e+00
Epsomite             Element not present.    0.000e+00               0.000e+00
Gaylussite           Element not present.    0.000e+00               0.000e+00
Glaserite            Element not present.    0.000e+00               0.000e+00
Glauberite           Element not present.    0.000e+00               0.000e+00
Goergeyite           Element not present.    0.000e+00               0.000e+00
Gypsum               Element not present.    0.000e+00               0.000e+00
Halite               Element not present.    0.000e+00               0.000e+00
Hexahydrite          Element not present.    0.000e+00               0.000e+00
Huntite              Element not present.    0.000e+00               0.000e+00
Kainite              Element not present.    0.000e+00               0.000e+00
Kieserite            Element not present.    0.000e+00               0.000e+00
Labile_S             Element not present.    0.000e+00               0.000e+00
Leonhardite          Element not present.    0.000e+00               0.000e+00
Leonite              Element not present.    0.000e+00               0.000e+00
Magnesite            Element not present.    0.000e+00               0.000e+00
MgCl2_2H2O           Element not present.    0.000e+00               0.000e+00
MgCl2_4H2O           Element not present.    0.000e+00               0.000e+00
Mirabilite           Element not present.    0.000e+00               0.000e+00
Natron               Element not present.    0.000e+00               0.000e+00
Nesquehonite         Element not present.    0.000e+00               0.000e+00
Pentahydrite         Element not present.    0.000e+00               0.000e+00
Pirssonite           Element not present.    0.000e+00               0.000e+00
Polyhalite           Element not present.    0.000e+00               0.000e+00
Portlandite          Element not present.    0.000e+00               0.000e+00
Schoenite            Element not present.    0.000e+00               0.000e+00
Sylvite              Element not present.    0.000e+00               0.000e+00
Syngenite            Element not present.    0.000e+00               0.000e+00
Teepleite            Element not present.    0.000e+00               0.000e+00
Thenardite           Element not present.    0.000e+00               0.000e+00

-----------------------------Solution composition------------------------------

	Elements           Molality       Moles

	Pure water     

----------------------------Description of solution----------------------------

                                       pH  =   7.000      Charge balance
                                       pe  =   4.000      Adjusted to redox equilibrium
      Specific Conductance (µS/cm,  25°C)  = 0
                          Density (g/cm³)  =   0.99704
                               Volume (L)  =  17.42969
                        Activity of water  =   1.000
                 Ionic strength (mol/kgw)  =   1.006e-07
                       Mass of water (kg)  =   1.738e+01
                 Total alkalinity (eq/kg)  =   1.216e-09
                         Temperature (°C)  =  25.00
                  Electrical balance (eq)  =  -2.114e-08
 Percent error, 100*(Cat-|An|)/(Cat+|An|)  =  -0.60
                               Iterations  =   1 (13 overall)
                         Gamma iterations  =   1
                      Osmotic coefficient  =   0.99988
                         Density of water  =   0.99704
                                  Total H  = 1.929191e+03
                                  Total O  = 9.645956e+02

----------------------------Distribution of species----------------------------

                                                    MacInnes  MacInnes
                                MacInnes       Log       Log       Log    mole V
   Species          Molality    Activity  Molality  Activity     Gamma   cm³/mol

   OH-             1.013e-07   1.012e-07    -6.995    -6.995    -0.000     -4.14
   H+              1.000e-07   1.000e-07    -7.000    -7.000    -0.000      0.00
   H2O             5.551e+01   1.000e+00     1.744    -0.000     0.000     18.07

------------------------------Saturation indices-------------------------------

  Phase               SI** log IAP   log K(298 K,   1 atm)

  H2O(g)           -1.50     -0.00    1.50  H2O

**For a gas, SI = log10(fugacity). Fugacity = pressure * phi / 1 atm.
  For ideal gases, phi = 1.

Using solution 3.	Initial solution in the RO module
Using pure phase assemblage 3.	

-------------------------------Phase assemblage--------------------------------

                                                      Moles in assemblage
Phase               SI  log IAP  log K(T, P)   Initial       Final       Delta

Anhydrite            Element not present.    0.000e+00               0.000e+00
Aragonite            Element not present.    0.000e+00               0.000e+00
Arcanite             Element not present.    0.000e+00               0.000e+00
Artinite             Element not present.    0.000e+00               0.000e+00
Barite               Element not present.    0.000e+00               0.000e+00
Bischofite           Element not present.    0.000e+00               0.000e+00
Bloedite             Element not present.    0.000e+00               0.000e+00
Brucite              Element not present.    0.000e+00               0.000e+00
Burkeite             Element not present.    0.000e+00               0.000e+00
Calcite              Element not present.    0.000e+00               0.000e+00
Carnallite           Element not present.    0.000e+00               0.000e+00
Celestite            Element not present.    0.000e+00               0.000e+00
Dolomite             Element not present.    0.000e+00               0.000e+00
Epsomite             Element not present.    0.000e+00               0.000e+00
Gaylussite           Element not present.    0.000e+00               0.000e+00
Glaserite            Element not present.    0.000e+00               0.000e+00
Glauberite           Element not present.    0.000e+00               0.000e+00
Goergeyite           Element not present.    0.000e+00               0.000e+00
Gypsum               Element not present.    0.000e+00               0.000e+00
Halite               Element not present.    0.000e+00               0.000e+00
Hexahydrite          Element not present.    0.000e+00               0.000e+00
Huntite              Element not present.    0.000e+00               0.000e+00
Kainite              Element not present.    0.000e+00               0.000e+00
Kieserite            Element not present.    0.000e+00               0.000e+00
Labile_S             Element not present.    0.000e+00               0.000e+00
Leonhardite          Element not present.    0.000e+00               0.000e+00
Leonite              Element not present.    0.000e+00               0.000e+00
Magnesite            Element not present.    0.000e+00               0.000e+00
MgCl2_2H2O           Element not present.    0.000e+00               0.000e+00
MgCl2_4H2O           Element not present.    0.000e+00               0.000e+00
Mirabilite           Element not present.    0.000e+00               0.000e+00
Natron               Element not present.    0.000e+00               0.000e+00
Nesquehonite         Element not present.    0.000e+00               0.000e+00
Pentahydrite         Element not present.    0.000e+00               0.000e+00
Pirssonite           Element not present.    0.000e+00               0.000e+00
Polyhalite           Element not present.    0.000e+00               0.000e+00
Portlandite          Element not present.    0.000e+00               0.000e+00
Schoenite            Element not present.    0.000e+00               0.000e+00
Sylvite              Element not present.    0.000e+00               0.000e+00
Syngenite            Element not present.    0.000e+00               0.000e+00
Teepleite            Element not present.    0.000e+00               0.000e+00
Thenardite           Element not present.    0.000e+00               0.000e+00

-----------------------------Solution composition------------------------------

	Elements           Molality       Moles

	Pure water     

----------------------------Description of solution----------------------------

                                       pH  =   7.000      Charge balance
                                       pe  =   4.000      Adjusted to redox equilibrium
      Specific Conductance (µS/cm,  25°C)  = 0
                          Density (g/cm³)  =   0.99704
                               Volume (L)  =  17.42969
                        Activity of water  =   1.000
                 Ionic strength (mol/kgw)  =   1.006e-07
                       Mass of water (kg)  =   1.738e+01
                 Total alkalinity (eq/kg)  =   1.216e-09
                         Temperature (°C)  =  25.00
                  Electrical balance (eq)  =  -2.114e-08
 Percent error, 100*(Cat-|An|)/(Cat+|An|)  =  -0.60
                               Iterations  =   1 (14 overall)
                         Gamma iterations  =   1
                      Osmotic coefficient  =   0.99988
                         Density of water  =   0.99704
                                  Total H  = 1.929191e+03
                                  Total O  = 9.645956e+02

----------------------------Distribution of species----------------------------

                                                    MacInnes  MacInnes
                                MacInnes       Log       Log       Log    mole V
   Species          Molality    Activity  Molality  Activity     Gamma   cm³/mol

   OH-             1.013e-07   1.012e-07    -6.995    -6.995    -0.000     -4.14
   H+              1.000e-07   1.000e-07    -7.000    -7.000    -0.000      0.00
   H2O             5.551e+01   1.000e+00     1.744    -0.000     0.000     18.07

------------------------------Saturation indices-------------------------------

  Phase               SI** log IAP   log K(298 K,   1 atm)

  H2O(g)           -1.50     -0.00    1.50  H2O

**For a gas, SI = log10(fugacity). Fugacity = pressure * phi / 1 atm.
  For ideal gases, phi = 1.

Using solution 4.	Initial solution in the RO module
Using pure phase assemblage 4.	

-------------------------------Phase assemblage--------------------------------

                                                      Moles in assemblage
Phase               SI  log IAP  log K(T, P)   Initial       Final       Delta

Anhydrite            Element not present.    0.000e+00               0.000e+00
Aragonite            Element not present.    0.000e+00               0.000e+00
Arcanite             Element not present.    0.000e+00               0.000e+00
Artinite             Element not present.    0.000e+00               0.000e+00
Barite               Element not present.    0.000e+00               0.000e+00
Bischofite           Element not present.    0.000e+00               0.000e+00
Bloedite             Element not present.    0.000e+00               0.000e+00
Brucite              Element not present.    0.000e+00               0.000e+00
Burkeite             Element not present.    0.000e+00               0.000e+00
Calcite              Element not present.    0.000e+00               0.000e+00
Carnallite           Element not present.    0.000e+00               0.000e+00
Celestite            Element not present.    0.000e+00               0.000e+00
Dolomite             Element not present.    0.000e+00               0.000e+00
Epsomite             Element not present.    0.000e+00               0.000e+00
Gaylussite           Element not present.    0.000e+00               0.000e+00
Glaserite            Element not present.    0.000e+00               0.000e+00
Glauberite           Element not present.    0.000e+00               0.000e+00
Goergeyite           Element not present.    0.000e+00               0.000e+00
Gypsum               Element not present.    0.000e+00               0.000e+00
Halite               Element not present.    0.000e+00               0.000e+00
Hexahydrite          Element not present.    0.000e+00               0.000e+00
Huntite              Element not present.    0.000e+00               0.000e+00
Kainite              Element not present.    0.000e+00               0.000e+00
Kieserite            Element not present.    0.000e+00               0.000e+00
Labile_S             Element not present.    0.000e+00               0.000e+00
Leonhardite          Element not present.    0.000e+00               0.000e+00
Leonite              Element not present.    0.000e+00               0.000e+00
Magnesite            Element not present.    0.000e+00               0.000e+00
MgCl2_2H2O           Element not present.    0.000e+00               0.000e+00
MgCl2_4H2O           Element not present.    0.000e+00               0.000e+00
Mirabilite           Element not present.    0.000e+00               0.000e+00
Natron               Element not present.    0.000e+00               0.000e+00
Nesquehonite         Element not present.    0.000e+00               0.000e+00
Pentahydrite         Element not present.    0.000e+00               0.000e+00
Pirssonite           Element not present.    0.000e+00               0.000e+00
Polyhalite           Element not present.    0.000e+00               0.000e+00
Portlandite          Element not present.    0.000e+00               0.000e+00
Schoenite            Element not present.    0.000e+00               0.000e+00
Sylvite              Element not present.    0.000e+00               0.000e+00
Syngenite            Element not present.    0.000e+00               0.000e+00
Teepleite            Element not present.    0.000e+00               0.000e+00
Thenardite           Element not present.    0.000e+00               0.000e+00

-----------------------------Solution composition------------------------------

	Elements           Molality       Moles

	Pure water     

----------------------------Description of solution----------------------------

                                       pH  =   7.000      Charge balance
                                       pe  =   4.000      Adjusted to redox equilibrium
      Specific Conductance (µS/cm,  25°C)  = 0
                          Density (g/cm³)  =   0.99704
                               Volume (L)  =  17.42969
                        Activity of water  =   1.000
                 Ionic strength (mol/kgw)  =   1.006e-07
                       Mass of water (kg)  =   1.738e+01
                 Total alkalinity (eq/kg)  =   1.216e-09
                         Temperature (°C)  =  25.00
                  Electrical balance (eq)  =  -2.114e-08
 Percent error, 100*(Cat-|An|)/(Cat+|An|)  =  -0.60
                               Iterations  =   1 (15 overall)
                         Gamma iterations  =   1
                      Osmotic coefficient  =   0.99988
                         Density of water  =   0.99704
                                  Total H  = 1.929191e+03
                                  Total O  = 9.645956e+02

----------------------------Distribution of species----------------------------

                                                    MacInnes  MacInnes
                                MacInnes       Log       Log       Log    mole V
   Species          Molality    Activity  Molality  Activity     Gamma   cm³/mol

   OH-             1.013e-07   1.012e-07    -6.995    -6.995    -0.000     -4.14
   H+              1.000e-07   1.000e-07    -7.000    -7.000    -0.000      0.00
   H2O             5.551e+01   1.000e+00     1.744    -0.000     0.000     18.07

------------------------------Saturation indices-------------------------------

  Phase               SI** log IAP   log K(298 K,   1 atm)

  H2O(g)           -1.50     -0.00    1.50  H2O

**For a gas, SI = log10(fugacity). Fugacity = pressure * phi / 1 atm.
  For ideal gases, phi = 1.

Using solution 5.	Initial solution in the RO module
Using pure phase assemblage 5.	

-------------------------------Phase assemblage--------------------------------

                                                      Moles in assemblage
Phase               SI  log IAP  log K(T, P)   Initial       Final       Delta

Anhydrite            Element not present.    0.000e+00               0.000e+00
Aragonite            Element not present.    0.000e+00               0.000e+00
Arcanite             Element not present.    0.000e+00               0.000e+00
Artinite             Element not present.    0.000e+00               0.000e+00
Barite               Element not present.    0.000e+00               0.000e+00
Bischofite           Element not present.    0.000e+00               0.000e+00
Bloedite             Element not present.    0.000e+00               0.000e+00
Brucite              Element not present.    0.000e+00               0.000e+00
Burkeite             Element not present.    0.000e+00               0.000e+00
Calcite              Element not present.    0.000e+00               0.000e+00
Carnallite           Element not present.    0.000e+00               0.000e+00
Celestite            Element not present.    0.000e+00               0.000e+00
Dolomite             Element not present.    0.000e+00               0.000e+00
Epsomite             Element not present.    0.000e+00               0.000e+00
Gaylussite           Element not present.    0.000e+00               0.000e+00
Glaserite            Element not present.    0.000e+00               0.000e+00
Glauberite           Element not present.    0.000e+00               0.000e+00
Goergeyite           Element not present.    0.000e+00               0.000e+00
Gypsum               Element not present.    0.000e+00               0.000e+00
Halite               Element not present.    0.000e+00               0.000e+00
Hexahydrite          Element not present.    0.000e+00               0.000e+00
Huntite              Element not present.    0.000e+00               0.000e+00
Kainite              Element not present.    0.000e+00               0.000e+00
Kieserite            Element not present.    0.000e+00               0.000e+00
Labile_S             Element not present.    0.000e+00               0.000e+00
Leonhardite          Element not present.    0.000e+00               0.000e+00
Leonite              Element not present.    0.000e+00               0.000e+00
Magnesite            Element not present.    0.000e+00               0.000e+00
MgCl2_2H2O           Element not present.    0.000e+00               0.000e+00
MgCl2_4H2O           Element not present.    0.000e+00               0.000e+00
Mirabilite           Element not present.    0.000e+00               0.000e+00
Natron               Element not present.    0.000e+00               0.000e+00
Nesquehonite         Element not present.    0.000e+00               0.000e+00
Pentahydrite         Element not present.    0.000e+00               0.000e+00
Pirssonite           Element not present.    0.000e+00               0.000e+00
Polyhalite           Element not present.    0.000e+00               0.000e+00
Portlandite          Element not present.    0.000e+00               0.000e+00
Schoenite            Element not present.    0.000e+00               0.000e+00
Sylvite              Element not present.    0.000e+00               0.000e+00
Syngenite            Element not present.    0.000e+00               0.000e+00
Teepleite            Element not present.    0.000e+00               0.000e+00
Thenardite           Element not present.    0.000e+00               0.000e+00

-----------------------------Solution composition------------------------------

	Elements           Molality       Moles

	Pure water     

----------------------------Description of solution----------------------------

                                       pH  =   7.000      Charge balance
                                       pe  =   4.000      Adjusted to redox equilibrium
      Specific Conductance (µS/cm,  25°C)  = 0
                          Density (g/cm³)  =   0.99704
                               Volume (L)  =  17.42969
                        Activity of water  =   1.000
                 Ionic strength (mol/kgw)  =   1.006e-07
                       Mass of water (kg)  =   1.738e+01
                 Total alkalinity (eq/kg)  =   1.216e-09
                         Temperature (°C)  =  25.00
                  Electrical balance (eq)  =  -2.114e-08
 Percent error, 100*(Cat-|An|)/(Cat+|An|)  =  -0.60
                               Iterations  =   1 (16 overall)
                         Gamma iterations  =   1
                      Osmotic coefficient  =   0.99988
                         Density of water  =   0.99704
                                  Total H  = 1.929191e+03
                                  Total O  = 9.645956e+02

----------------------------Distribution of species----------------------------

                                                    MacInnes  MacInnes
                                MacInnes       Log       Log       Log    mole V
   Species          Molality    Activity  Molality  Activity     Gamma   cm³/mol

   OH-             1.013e-07   1.012e-07    -6.995    -6.995    -0.000     -4.14
   H+              1.000e-07   1.000e-07    -7.000    -7.000    -0.000      0.00
   H2O             5.551e+01   1.000e+00     1.744    -0.000     0.000     18.07

------------------------------Saturation indices-------------------------------

  Phase               SI** log IAP   log K(298 K,   1 atm)

  H2O(g)           -1.50     -0.00    1.50  H2O

**For a gas, SI = log10(fugacity). Fugacity = pressure * phi / 1 atm.
  For ideal gases, phi = 1.

Using solution 6.	Initial solution in the RO module
Using pure phase assemblage 6.	

-------------------------------Phase assemblage--------------------------------

                                                      Moles in assemblage
Phase               SI  log IAP  log K(T, P)   Initial       Final       Delta

Anhydrite            Element not present.    0.000e+00               0.000e+00
Aragonite            Element not present.    0.000e+00               0.000e+00
Arcanite             Element not present.    0.000e+00               0.000e+00
Artinite             Element not present.    0.000e+00               0.000e+00
Barite               Element not present.    0.000e+00               0.000e+00
Bischofite           Element not present.    0.000e+00               0.000e+00
Bloedite             Element not present.    0.000e+00               0.000e+00
Brucite              Element not present.    0.000e+00               0.000e+00
Burkeite             Element not present.    0.000e+00               0.000e+00
Calcite              Element not present.    0.000e+00               0.000e+00
Carnallite           Element not present.    0.000e+00               0.000e+00
Celestite            Element not present.    0.000e+00               0.000e+00
Dolomite             Element not present.    0.000e+00               0.000e+00
Epsomite             Element not present.    0.000e+00               0.000e+00
Gaylussite           Element not present.    0.000e+00               0.000e+00
Glaserite            Element not present.    0.000e+00               0.000e+00
Glauberite           Element not present.    0.000e+00               0.000e+00
Goergeyite           Element not present.    0.000e+00               0.000e+00
Gypsum               Element not present.    0.000e+00               0.000e+00
Halite               Element not present.    0.000e+00               0.000e+00
Hexahydrite          Element not present.    0.000e+00               0.000e+00
Huntite              Element not present.    0.000e+00               0.000e+00
Kainite              Element not present.    0.000e+00               0.000e+00
Kieserite            Element not present.    0.000e+00               0.000e+00
Labile_S             Element not present.    0.000e+00               0.000e+00
Leonhardite          Element not present.    0.000e+00               0.000e+00
Leonite              Element not present.    0.000e+00               0.000e+00
Magnesite            Element not present.    0.000e+00               0.000e+00
MgCl2_2H2O           Element not present.    0.000e+00               0.000e+00
MgCl2_4H2O           Element not present.    0.000e+00               0.000e+00
Mirabilite           Element not present.    0.000e+00               0.000e+00
Natron               Element not present.    0.000e+00               0.000e+00
Nesquehonite         Element not present.    0.000e+00               0.000e+00
Pentahydrite         Element not present.    0.000e+00               0.000e+00
Pirssonite           Element not present.    0.000e+00               0.000e+00
Polyhalite           Element not present.    0.000e+00               0.000e+00
Portlandite          Element not present.    0.000e+00               0.000e+00
Schoenite            Element not present.    0.000e+00               0.000e+00
Sylvite              Element not present.    0.000e+00               0.000e+00
Syngenite            Element not present.    0.000e+00               0.000e+00
Teepleite            Element not present.    0.000e+00               0.000e+00
Thenardite           Element not present.    0.000e+00               0.000e+00

-----------------------------Solution composition------------------------------

	Elements           Molality       Moles

	Pure water     

----------------------------Description of solution----------------------------

                                       pH  =   7.000      Charge balance
                                       pe  =   4.000      Adjusted to redox equilibrium
      Specific Conductance (µS/cm,  25°C)  = 0
                          Density (g/cm³)  =   0.99704
                               Volume (L)  =  17.42969
                        Activity of water  =   1.000
                 Ionic strength (mol/kgw)  =   1.006e-07
                       Mass of water (kg)  =   1.738e+01
                 Total alkalinity (eq/kg)  =   1.216e-09
                         Temperature (°C)  =  25.00
                  Electrical balance (eq)  =  -2.114e-08
 Percent error, 100*(Cat-|An|)/(Cat+|An|)  =  -0.60
                               Iterations  =   1 (17 overall)
                         Gamma iterations  =   1
                      Osmotic coefficient  =   0.99988
                         Density of water  =   0.99704
                                  Total H  = 1.929191e+03
                                  Total O  = 9.645956e+02

----------------------------Distribution of species----------------------------

                                                    MacInnes  MacInnes
                                MacInnes       Log       Log       Log    mole V
   Species          Molality    Activity  Molality  Activity     Gamma   cm³/mol

   OH-             1.013e-07   1.012e-07    -6.995    -6.995    -0.000     -4.14
   H+              1.000e-07   1.000e-07    -7.000    -7.000    -0.000      0.00
   H2O             5.551e+01   1.000e+00     1.744    -0.000     0.000     18.07

------------------------------Saturation indices-------------------------------

  Phase               SI** log IAP   log K(298 K,   1 atm)

  H2O(g)           -1.50     -0.00    1.50  H2O

**For a gas, SI = log10(fugacity). Fugacity = pressure * phi / 1 atm.
  For ideal gases, phi = 1.

Using solution 7.	Initial solution in the RO module
Using pure phase assemblage 7.	

-------------------------------Phase assemblage--------------------------------

                                                      Moles in assemblage
Phase               SI  log IAP  log K(T, P)   Initial       Final       Delta

Anhydrite            Element not present.    0.000e+00               0.000e+00
Aragonite            Element not present.    0.000e+00               0.000e+00
Arcanite             Element not present.    0.000e+00               0.000e+00
Artinite             Element not present.    0.000e+00               0.000e+00
Barite               Element not present.    0.000e+00               0.000e+00
Bischofite           Element not present.    0.000e+00               0.000e+00
Bloedite             Element not present.    0.000e+00               0.000e+00
Brucite              Element not present.    0.000e+00               0.000e+00
Burkeite             Element not present.    0.000e+00               0.000e+00
Calcite              Element not present.    0.000e+00               0.000e+00
Carnallite           Element not present.    0.000e+00               0.000e+00
Celestite            Element not present.    0.000e+00               0.000e+00
Dolomite             Element not present.    0.000e+00               0.000e+00
Epsomite             Element not present.    0.000e+00               0.000e+00
Gaylussite           Element not present.    0.000e+00               0.000e+00
Glaserite            Element not present.    0.000e+00               0.000e+00
Glauberite           Element not present.    0.000e+00               0.000e+00
Goergeyite           Element not present.    0.000e+00               0.000e+00
Gypsum               Element not present.    0.000e+00               0.000e+00
Halite               Element not present.    0.000e+00               0.000e+00
Hexahydrite          Element not present.    0.000e+00               0.000e+00
Huntite              Element not present.    0.000e+00               0.000e+00
Kainite              Element not present.    0.000e+00               0.000e+00
Kieserite            Element not present.    0.000e+00               0.000e+00
Labile_S             Element not present.    0.000e+00               0.000e+00
Leonhardite          Element not present.    0.000e+00               0.000e+00
Leonite              Element not present.    0.000e+00               0.000e+00
Magnesite            Element not present.    0.000e+00               0.000e+00
MgCl2_2H2O           Element not present.    0.000e+00               0.000e+00
MgCl2_4H2O           Element not present.    0.000e+00               0.000e+00
Mirabilite           Element not present.    0.000e+00               0.000e+00
Natron               Element not present.    0.000e+00               0.000e+00
Nesquehonite         Element not present.    0.000e+00               0.000e+00
Pentahydrite         Element not present.    0.000e+00               0.000e+00
Pirssonite           Element not present.    0.000e+00               0.000e+00
Polyhalite           Element not present.    0.000e+00               0.000e+00
Portlandite          Element not present.    0.000e+00               0.000e+00
Schoenite            Element not present.    0.000e+00               0.000e+00
Sylvite              Element not present.    0.000e+00               0.000e+00
Syngenite            Element not present.    0.000e+00               0.000e+00
Teepleite            Element not present.    0.000e+00               0.000e+00
Thenardite           Element not present.    0.000e+00               0.000e+00

-----------------------------Solution composition------------------------------

	Elements           Molality       Moles

	Pure water     

----------------------------Description of solution----------------------------

                                       pH  =   7.000      Charge balance
                                       pe  =   4.000      Adjusted to redox equilibrium
      Specific Conductance (µS/cm,  25°C)  = 0
                          Density (g/cm³)  =   0.99704
                               Volume (L)  =  17.42969
                        Activity of water  =   1.000
                 Ionic strength (mol/kgw)  =   1.006e-07
                       Mass of water (kg)  =   1.738e+01
                 Total alkalinity (eq/kg)  =   1.216e-09
                         Temperature (°C)  =  25.00
                  Electrical balance (eq)  =  -2.114e-08
 Percent error, 100*(Cat-|An|)/(Cat+|An|)  =  -0.60
                               Iterations  =   1 (18 overall)
                         Gamma iterations  =   1
                      Osmotic coefficient  =   0.99988
                         Density of water  =   0.99704
                                  Total H  = 1.929191e+03
                                  Total O  = 9.645956e+02

----------------------------Distribution of species----------------------------

                                                    MacInnes  MacInnes
                                MacInnes       Log       Log       Log    mole V
   Species          Molality    Activity  Molality  Activity     Gamma   cm³/mol

   OH-             1.013e-07   1.012e-07    -6.995    -6.995    -0.000     -4.14
   H+              1.000e-07   1.000e-07    -7.000    -7.000    -0.000      0.00
   H2O             5.551e+01   1.000e+00     1.744    -0.000     0.000     18.07

------------------------------Saturation indices-------------------------------

  Phase               SI** log IAP   log K(298 K,   1 atm)

  H2O(g)           -1.50     -0.00    1.50  H2O

**For a gas, SI = log10(fugacity). Fugacity = pressure * phi / 1 atm.
  For ideal gases, phi = 1.

Using solution 8.	Initial solution in the RO module
Using pure phase assemblage 8.	

-------------------------------Phase assemblage--------------------------------

                                                      Moles in assemblage
Phase               SI  log IAP  log K(T, P)   Initial       Final       Delta

Anhydrite            Element not present.    0.000e+00               0.000e+00
Aragonite            Element not present.    0.000e+00               0.000e+00
Arcanite             Element not present.    0.000e+00               0.000e+00
Artinite             Element not present.    0.000e+00               0.000e+00
Barite               Element not present.    0.000e+00               0.000e+00
Bischofite           Element not present.    0.000e+00               0.000e+00
Bloedite             Element not present.    0.000e+00               0.000e+00
Brucite              Element not present.    0.000e+00               0.000e+00
Burkeite             Element not present.    0.000e+00               0.000e+00
Calcite              Element not present.    0.000e+00               0.000e+00
Carnallite           Element not present.    0.000e+00               0.000e+00
Celestite            Element not present.    0.000e+00               0.000e+00
Dolomite             Element not present.    0.000e+00               0.000e+00
Epsomite             Element not present.    0.000e+00               0.000e+00
Gaylussite           Element not present.    0.000e+00               0.000e+00
Glaserite            Element not present.    0.000e+00               0.000e+00
Glauberite           Element not present.    0.000e+00               0.000e+00
Goergeyite           Element not present.    0.000e+00               0.000e+00
Gypsum               Element not present.    0.000e+00               0.000e+00
Halite               Element not present.    0.000e+00               0.000e+00
Hexahydrite          Element not present.    0.000e+00               0.000e+00
Huntite              Element not present.    0.000e+00               0.000e+00
Kainite              Element not present.    0.000e+00               0.000e+00
Kieserite            Element not present.    0.000e+00               0.000e+00
Labile_S             Element not present.    0.000e+00               0.000e+00
Leonhardite          Element not present.    0.000e+00               0.000e+00
Leonite              Element not present.    0.000e+00               0.000e+00
Magnesite            Element not present.    0.000e+00               0.000e+00
MgCl2_2H2O           Element not present.    0.000e+00               0.000e+00
MgCl2_4H2O           Element not present.    0.000e+00               0.000e+00
Mirabilite           Element not present.    0.000e+00               0.000e+00
Natron               Element not present.    0.000e+00               0.000e+00
Nesquehonite         Element not present.    0.000e+00               0.000e+00
Pentahydrite         Element not present.    0.000e+00               0.000e+00
Pirssonite           Element not present.    0.000e+00               0.000e+00
Polyhalite           Element not present.    0.000e+00               0.000e+00
Portlandite          Element not present.    0.000e+00               0.000e+00
Schoenite            Element not present.    0.000e+00               0.000e+00
Sylvite              Element not present.    0.000e+00               0.000e+00
Syngenite            Element not present.    0.000e+00               0.000e+00
Teepleite            Element not present.    0.000e+00               0.000e+00
Thenardite           Element not present.    0.000e+00               0.000e+00

-----------------------------Solution composition------------------------------

	Elements           Molality       Moles

	Pure water     

----------------------------Description of solution----------------------------

                                       pH  =   7.000      Charge balance
                                       pe  =   4.000      Adjusted to redox equilibrium
      Specific Conductance (µS/cm,  25°C)  = 0
                          Density (g/cm³)  =   0.99704
                               Volume (L)  =  17.42969
                        Activity of water  =   1.000
                 Ionic strength (mol/kgw)  =   1.006e-07
                       Mass of water (kg)  =   1.738e+01
                 Total alkalinity (eq/kg)  =   1.216e-09
                         Temperature (°C)  =  25.00
                  Electrical balance (eq)  =  -2.114e-08
 Percent error, 100*(Cat-|An|)/(Cat+|An|)  =  -0.60
                               Iterations  =   1 (19 overall)
                         Gamma iterations  =   1
                      Osmotic coefficient  =   0.99988
                         Density of water  =   0.99704
                                  Total H  = 1.929191e+03
                                  Total O  = 9.645956e+02

----------------------------Distribution of species----------------------------

                                                    MacInnes  MacInnes
                                MacInnes       Log       Log       Log    mole V
   Species          Molality    Activity  Molality  Activity     Gamma   cm³/mol

   OH-             1.013e-07   1.012e-07    -6.995    -6.995    -0.000     -4.14
   H+              1.000e-07   1.000e-07    -7.000    -7.000    -0.000      0.00
   H2O             5.551e+01   1.000e+00     1.744    -0.000     0.000     18.07

------------------------------Saturation indices-------------------------------

  Phase               SI** log IAP   log K(298 K,   1 atm)

  H2O(g)           -1.50     -0.00    1.50  H2O

**For a gas, SI = log10(fugacity). Fugacity = pressure * phi / 1 atm.
  For ideal gases, phi = 1.

Using solution 9.	Initial solution in the RO module
Using pure phase assemblage 9.	

-------------------------------Phase assemblage--------------------------------

                                                      Moles in assemblage
Phase               SI  log IAP  log K(T, P)   Initial       Final       Delta

Anhydrite            Element not present.    0.000e+00               0.000e+00
Aragonite            Element not present.    0.000e+00               0.000e+00
Arcanite             Element not present.    0.000e+00               0.000e+00
Artinite             Element not present.    0.000e+00               0.000e+00
Barite               Element not present.    0.000e+00               0.000e+00
Bischofite           Element not present.    0.000e+00               0.000e+00
[...]
Portlandite          Element not present.    0.000e+00               0.000e+00
Schoenite            Element not present.    0.000e+00               0.000e+00
Sylvite              Element not present.    0.000e+00               0.000e+00
Syngenite            Element not present.    0.000e+00               0.000e+00
Teepleite            Element not present.    0.000e+00               0.000e+00
Thenardite           Element not present.    0.000e+00               0.000e+00

-----------------------------Solution composition------------------------------

	Elements           Molality       Moles

	Pure water     

----------------------------Description of solution----------------------------

                                       pH  =   7.000      Charge balance
                                       pe  =   4.000      Adjusted to redox equilibrium
      Specific Conductance (µS/cm,  25°C)  = 0
                          Density (g/cm³)  =   0.99704
                               Volume (L)  =  17.42969
                        Activity of water  =   1.000
                 Ionic strength (mol/kgw)  =   1.006e-07
                       Mass of water (kg)  =   1.738e+01
                 Total alkalinity (eq/kg)  =   1.216e-09
                         Temperature (°C)  =  25.00
                  Electrical balance (eq)  =  -2.114e-08
 Percent error, 100*(Cat-|An|)/(Cat+|An|)  =  -0.60
                               Iterations  =   1 (33 overall)
                         Gamma iterations  =   1
                      Osmotic coefficient  =   0.99988
                         Density of water  =   0.99704
                                  Total H  = 1.929191e+03
                                  Total O  = 9.645956e+02

----------------------------Distribution of species----------------------------

                                                    MacInnes  MacInnes
                                MacInnes       Log       Log       Log    mole V
   Species          Molality    Activity  Molality  Activity     Gamma   cm³/mol

   OH-             1.013e-07   1.012e-07    -6.995    -6.995    -0.000     -4.14
   H+              1.000e-07   1.000e-07    -7.000    -7.000    -0.000      0.00
   H2O             5.551e+01   1.000e+00     1.744    -0.000     0.000     18.07

------------------------------Saturation indices-------------------------------

  Phase               SI** log IAP   log K(298 K,   1 atm)

  H2O(g)           -1.50     -0.00    1.50  H2O

**For a gas, SI = log10(fugacity). Fugacity = pressure * phi / 1 atm.
  For ideal gases, phi = 1.

Using solution 23.	Initial solution in the RO module
Using pure phase assemblage 23.	

-------------------------------Phase assemblage--------------------------------

                                                      Moles in assemblage
Phase               SI  log IAP  log K(T, P)   Initial       Final       Delta

Anhydrite            Element not present.    0.000e+00               0.000e+00
Aragonite            Element not present.    0.000e+00               0.000e+00
Arcanite             Element not present.    0.000e+00               0.000e+00
Artinite             Element not present.    0.000e+00               0.000e+00
Barite               Element not present.    0.000e+00               0.000e+00
Bischofite           Element not present.    0.000e+00               0.000e+00
Bloedite             Element not present.    0.000e+00               0.000e+00
Brucite              Element not present.    0.000e+00               0.000e+00
Burkeite             Element not present.    0.000e+00               0.000e+00
Calcite              Element not present.    0.000e+00               0.000e+00
Carnallite           Element not present.    0.000e+00               0.000e+00
Celestite            Element not present.    0.000e+00               0.000e+00
Dolomite             Element not present.    0.000e+00               0.000e+00
Epsomite             Element not present.    0.000e+00               0.000e+00
Gaylussite           Element not present.    0.000e+00               0.000e+00
Glaserite            Element not present.    0.000e+00               0.000e+00
Glauberite           Element not present.    0.000e+00               0.000e+00
Goergeyite           Element not present.    0.000e+00               0.000e+00
Gypsum               Element not present.    0.000e+00               0.000e+00
Halite               Element not present.    0.000e+00               0.000e+00
Hexahydrite          Element not present.    0.000e+00               0.000e+00
Huntite              Element not present.    0.000e+00               0.000e+00
Kainite              Element not present.    0.000e+00               0.000e+00
Kieserite            Element not present.    0.000e+00               0.000e+00
Labile_S             Element not present.    0.000e+00               0.000e+00
Leonhardite          Element not present.    0.000e+00               0.000e+00
Leonite              Element not present.    0.000e+00               0.000e+00
Magnesite            Element not present.    0.000e+00               0.000e+00
MgCl2_2H2O           Element not present.    0.000e+00               0.000e+00
MgCl2_4H2O           Element not present.    0.000e+00               0.000e+00
Mirabilite           Element not present.    0.000e+00               0.000e+00
Natron               Element not present.    0.000e+00               0.000e+00
Nesquehonite         Element not present.    0.000e+00               0.000e+00
Pentahydrite         Element not present.    0.000e+00               0.000e+00
Pirssonite           Element not present.    0.000e+00               0.000e+00
Polyhalite           Element not present.    0.000e+00               0.000e+00
Portlandite          Element not present.    0.000e+00               0.000e+00
Schoenite            Element not present.    0.000e+00               0.000e+00
Sylvite              Element not present.    0.000e+00               0.000e+00
Syngenite            Element not present.    0.000e+00               0.000e+00
Teepleite            Element not present.    0.000e+00               0.000e+00
Thenardite           Element not present.    0.000e+00               0.000e+00

-----------------------------Solution composition------------------------------

	Elements           Molality       Moles

	Pure water     

----------------------------Description of solution----------------------------

                                       pH  =   7.000      Charge balance
                                       pe  =   4.000      Adjusted to redox equilibrium
      Specific Conductance (µS/cm,  25°C)  = 0
                          Density (g/cm³)  =   0.99704
                               Volume (L)  =  17.42969
                        Activity of water  =   1.000
                 Ionic strength (mol/kgw)  =   1.006e-07
                       Mass of water (kg)  =   1.738e+01
                 Total alkalinity (eq/kg)  =   1.216e-09
                         Temperature (°C)  =  25.00
                  Electrical balance (eq)  =  -2.114e-08
 Percent error, 100*(Cat-|An|)/(Cat+|An|)  =  -0.60
                               Iterations  =   1 (34 overall)
                         Gamma iterations  =   1
                      Osmotic coefficient  =   0.99988
                         Density of water  =   0.99704
                                  Total H  = 1.929191e+03
                                  Total O  = 9.645956e+02

----------------------------Distribution of species----------------------------

                                                    MacInnes  MacInnes
                                MacInnes       Log       Log       Log    mole V
   Species          Molality    Activity  Molality  Activity     Gamma   cm³/mol

   OH-             1.013e-07   1.012e-07    -6.995    -6.995    -0.000     -4.14
   H+              1.000e-07   1.000e-07    -7.000    -7.000    -0.000      0.00
   H2O             5.551e+01   1.000e+00     1.744    -0.000     0.000     18.07

------------------------------Saturation indices-------------------------------

  Phase               SI** log IAP   log K(298 K,   1 atm)

  H2O(g)           -1.50     -0.00    1.50  H2O

**For a gas, SI = log10(fugacity). Fugacity = pressure * phi / 1 atm.
  For ideal gases, phi = 1.

Using solution 24.	Initial solution in the RO module
Using pure phase assemblage 24.	

-------------------------------Phase assemblage--------------------------------

                                                      Moles in assemblage
Phase               SI  log IAP  log K(T, P)   Initial       Final       Delta

Anhydrite            Element not present.    0.000e+00               0.000e+00
Aragonite            Element not present.    0.000e+00               0.000e+00
Arcanite             Element not present.    0.000e+00               0.000e+00
Artinite             Element not present.    0.000e+00               0.000e+00
Barite               Element not present.    0.000e+00               0.000e+00
Bischofite           Element not present.    0.000e+00               0.000e+00
Bloedite             Element not present.    0.000e+00               0.000e+00
Brucite              Element not present.    0.000e+00               0.000e+00
Burkeite             Element not present.    0.000e+00               0.000e+00
Calcite              Element not present.    0.000e+00               0.000e+00
Carnallite           Element not present.    0.000e+00               0.000e+00
Celestite            Element not present.    0.000e+00               0.000e+00
Dolomite             Element not present.    0.000e+00               0.000e+00
Epsomite             Element not present.    0.000e+00               0.000e+00
Gaylussite           Element not present.    0.000e+00               0.000e+00
Glaserite            Element not present.    0.000e+00               0.000e+00
Glauberite           Element not present.    0.000e+00               0.000e+00
Goergeyite           Element not present.    0.000e+00               0.000e+00
Gypsum               Element not present.    0.000e+00               0.000e+00
Halite               Element not present.    0.000e+00               0.000e+00
Hexahydrite          Element not present.    0.000e+00               0.000e+00
Huntite              Element not present.    0.000e+00               0.000e+00
Kainite              Element not present.    0.000e+00               0.000e+00
Kieserite            Element not present.    0.000e+00               0.000e+00
Labile_S             Element not present.    0.000e+00               0.000e+00
Leonhardite          Element not present.    0.000e+00               0.000e+00
Leonite              Element not present.    0.000e+00               0.000e+00
Magnesite            Element not present.    0.000e+00               0.000e+00
MgCl2_2H2O           Element not present.    0.000e+00               0.000e+00
MgCl2_4H2O           Element not present.    0.000e+00               0.000e+00
Mirabilite           Element not present.    0.000e+00               0.000e+00
Natron               Element not present.    0.000e+00               0.000e+00
Nesquehonite         Element not present.    0.000e+00               0.000e+00
Pentahydrite         Element not present.    0.000e+00               0.000e+00
Pirssonite           Element not present.    0.000e+00               0.000e+00
Polyhalite           Element not present.    0.000e+00               0.000e+00
Portlandite          Element not present.    0.000e+00               0.000e+00
Schoenite            Element not present.    0.000e+00               0.000e+00
Sylvite              Element not present.    0.000e+00               0.000e+00
Syngenite            Element not present.    0.000e+00               0.000e+00
Teepleite            Element not present.    0.000e+00               0.000e+00
Thenardite           Element not present.    0.000e+00               0.000e+00

-----------------------------Solution composition------------------------------

	Elements           Molality       Moles

	Pure water     

----------------------------Description of solution----------------------------

                                       pH  =   7.000      Charge balance
                                       pe  =   4.000      Adjusted to redox equilibrium
      Specific Conductance (µS/cm,  25°C)  = 0
                          Density (g/cm³)  =   0.99704
                               Volume (L)  =  17.42969
                        Activity of water  =   1.000
                 Ionic strength (mol/kgw)  =   1.006e-07
                       Mass of water (kg)  =   1.738e+01
                 Total alkalinity (eq/kg)  =   1.216e-09
                         Temperature (°C)  =  25.00
                  Electrical balance (eq)  =  -2.114e-08
 Percent error, 100*(Cat-|An|)/(Cat+|An|)  =  -0.60
                               Iterations  =   1 (35 overall)
                         Gamma iterations  =   1
                      Osmotic coefficient  =   0.99988
                         Density of water  =   0.99704
                                  Total H  = 1.929191e+03
                                  Total O  = 9.645956e+02

----------------------------Distribution of species----------------------------

                                                    MacInnes  MacInnes
                                MacInnes       Log       Log       Log    mole V
   Species          Molality    Activity  Molality  Activity     Gamma   cm³/mol

   OH-             1.013e-07   1.012e-07    -6.995    -6.995    -0.000     -4.14
   H+              1.000e-07   1.000e-07    -7.000    -7.000    -0.000      0.00
   H2O             5.551e+01   1.000e+00     1.744    -0.000     0.000     18.07

------------------------------Saturation indices-------------------------------

  Phase               SI** log IAP   log K(298 K,   1 atm)

  H2O(g)           -1.50     -0.00    1.50  H2O

**For a gas, SI = log10(fugacity). Fugacity = pressure * phi / 1 atm.
  For ideal gases, phi = 1.

Using solution 25.	Initial solution in the RO module
Using pure phase assemblage 25.	

-------------------------------Phase assemblage--------------------------------

                                                      Moles in assemblage
Phase               SI  log IAP  log K(T, P)   Initial       Final       Delta

Anhydrite            Element not present.    0.000e+00               0.000e+00
Aragonite            Element not present.    0.000e+00               0.000e+00
Arcanite             Element not present.    0.000e+00               0.000e+00
Artinite             Element not present.    0.000e+00               0.000e+00
Barite               Element not present.    0.000e+00               0.000e+00
Bischofite           Element not present.    0.000e+00               0.000e+00
Bloedite             Element not present.    0.000e+00               0.000e+00
Brucite              Element not present.    0.000e+00               0.000e+00
Burkeite             Element not present.    0.000e+00               0.000e+00
Calcite              Element not present.    0.000e+00               0.000e+00
Carnallite           Element not present.    0.000e+00               0.000e+00
Celestite            Element not present.    0.000e+00               0.000e+00
Dolomite             Element not present.    0.000e+00               0.000e+00
Epsomite             Element not present.    0.000e+00               0.000e+00
Gaylussite           Element not present.    0.000e+00               0.000e+00
Glaserite            Element not present.    0.000e+00               0.000e+00
Glauberite           Element not present.    0.000e+00               0.000e+00
Goergeyite           Element not present.    0.000e+00               0.000e+00
Gypsum               Element not present.    0.000e+00               0.000e+00
Halite               Element not present.    0.000e+00               0.000e+00
Hexahydrite          Element not present.    0.000e+00               0.000e+00
Huntite              Element not present.    0.000e+00               0.000e+00
Kainite              Element not present.    0.000e+00               0.000e+00
Kieserite            Element not present.    0.000e+00               0.000e+00
Labile_S             Element not present.    0.000e+00               0.000e+00
Leonhardite          Element not present.    0.000e+00               0.000e+00
Leonite              Element not present.    0.000e+00               0.000e+00
Magnesite            Element not present.    0.000e+00               0.000e+00
MgCl2_2H2O           Element not present.    0.000e+00               0.000e+00
MgCl2_4H2O           Element not present.    0.000e+00               0.000e+00
Mirabilite           Element not present.    0.000e+00               0.000e+00
Natron               Element not present.    0.000e+00               0.000e+00
Nesquehonite         Element not present.    0.000e+00               0.000e+00
Pentahydrite         Element not present.    0.000e+00               0.000e+00
Pirssonite           Element not present.    0.000e+00               0.000e+00
Polyhalite           Element not present.    0.000e+00               0.000e+00
Portlandite          Element not present.    0.000e+00               0.000e+00
Schoenite            Element not present.    0.000e+00               0.000e+00
Sylvite              Element not present.    0.000e+00               0.000e+00
Syngenite            Element not present.    0.000e+00               0.000e+00
Teepleite            Element not present.    0.000e+00               0.000e+00
Thenardite           Element not present.    0.000e+00               0.000e+00

-----------------------------Solution composition------------------------------

	Elements           Molality       Moles

	Pure water     

----------------------------Description of solution----------------------------

                                       pH  =   7.000      Charge balance
                                       pe  =   4.000      Adjusted to redox equilibrium
      Specific Conductance (µS/cm,  25°C)  = 0
                          Density (g/cm³)  =   0.99704
                               Volume (L)  =  17.42969
                        Activity of water  =   1.000
                 Ionic strength (mol/kgw)  =   1.006e-07
                       Mass of water (kg)  =   1.738e+01
                 Total alkalinity (eq/kg)  =   1.216e-09
                         Temperature (°C)  =  25.00
                  Electrical balance (eq)  =  -2.114e-08
 Percent error, 100*(Cat-|An|)/(Cat+|An|)  =  -0.60
                               Iterations  =   1 (36 overall)
                         Gamma iterations  =   1
                      Osmotic coefficient  =   0.99988
                         Density of water  =   0.99704
                                  Total H  = 1.929191e+03
                                  Total O  = 9.645956e+02

----------------------------Distribution of species----------------------------

                                                    MacInnes  MacInnes
                                MacInnes       Log       Log       Log    mole V
   Species          Molality    Activity  Molality  Activity     Gamma   cm³/mol

   OH-             1.013e-07   1.012e-07    -6.995    -6.995    -0.000     -4.14
   H+              1.000e-07   1.000e-07    -7.000    -7.000    -0.000      0.00
   H2O             5.551e+01   1.000e+00     1.744    -0.000     0.000     18.07

------------------------------Saturation indices-------------------------------

  Phase               SI** log IAP   log K(298 K,   1 atm)

  H2O(g)           -1.50     -0.00    1.50  H2O

**For a gas, SI = log10(fugacity). Fugacity = pressure * phi / 1 atm.
  For ideal gases, phi = 1.

Transport step   1. Mixrun   1.

ERROR: Negative concentration in solution 14. Stopping calculation.
Stopping.
